<?xml version="1.0" encoding="UTF-8"?>

<!-- generated on 2026-04-11 01:05:09 by Eclipse SUMO netedit Version 1.18.0
<configuration xmlns:xsi="http://www.w3.org/2001/XMLSchema-instance" xsi:noNamespaceSchemaLocation="http://sumo.dlr.de/xsd/neteditConfiguration.xsd">

    <input>
        <additional-files value="/home/kirill/VaN3Twin/ns-3-dev/src/automotive/examples/new_tlm_map/rerouter.add.xml"/>
        <route-files value="/home/kirill/VaN3Twin/ns-3-dev/src/automotive/examples/new_tlm_map/cars.rou.xml"/>
        <sumo-net-file value="/home/kirill/VaN3Twin/ns-3-dev/src/automotive/examples/new_tlm_map/map.net.xml"/>
    </input>

    <output>
        <output-file value="/home/kirill/VaN3Twin/ns-3-dev/src/automotive/examples/new_tlm_map/map.net.xml"/>
    </output>

    <processing>
        <geometry.min-radius.fix.railways value="false"/>
        <geometry.max-grade.fix value="false"/>
        <offset.disable-normalization value="true"/>
        <lefthand value="0"/>
    </processing>

    <junctions>
        <no-turnarounds value="true"/>
        <junctions.corner-detail value="5"/>
        <junctions.limit-turn-speed value="5.50"/>
        <rectangular-lane-cut value="0"/>
    </junctions>

    <pedestrian>
        <walkingareas value="0"/>
    </pedestrian>

</configuration>
-->

<net version="1.16" junctionCornerDetail="5" limitTurnSpeed="5.50" xmlns:xsi="http://www.w3.org/2001/XMLSchema-instance" xsi:noNamespaceSchemaLocation="http://sumo.dlr.de/xsd/net_file.xsd">

    <location netOffset="-394175.96,-4989734.74" convBoundary="-150.00,-100.00,274.33,100.00" origBoundary="7.655664,45.053168,7.678963,45.076295" projParameter="+proj=utm +zone=32 +ellps=WGS84 +datum=WGS84 +units=m +no_defs"/>

    <edge id=":J1_0" function="internal">
        <lane id=":J1_0_0" index="0" speed="14.90" length="28.96" width="6.00" shape="136.51,62.22 133.79,69.14 129.68,74.77 124.17,79.10 117.26,82.12"/>
    </edge>
    <edge id=":J1_1" function="internal">
        <lane id=":J1_1_0" index="0" speed="9.43" length="13.14" width="6.00" shape="136.51,62.22 133.49,69.44 129.31,72.72"/>
    </edge>
    <edge id=":J1_2" function="internal">
        <lane id=":J1_2_0" index="0" speed="4.44" length="6.00" width="6.00" shape="136.51,62.22 130.72,60.67"/>
    </edge>
    <edge id=":J1_7" function="internal">
        <lane id=":J1_7_0" index="0" speed="9.43" length="13.31" width="6.00" shape="129.31,72.72 123.99,72.04 117.53,67.42"/>
    </edge>
    <edge id=":J1_3" function="internal">
        <lane id=":J1_3_0" index="0" speed="6.84" length="12.62" width="6.00" shape="121.63,63.04 124.73,65.27 127.28,65.62 129.28,64.09 130.72,60.67"/>
    </edge>
    <edge id=":J1_4" function="internal">
        <lane id=":J1_4_0" index="0" speed="9.41" length="26.60" width="6.00" shape="121.63,63.04 126.67,69.22 127.62,74.46 124.49,78.76 117.26,82.12"/>
    </edge>
    <edge id=":J1_5" function="internal">
        <lane id=":J1_5_0" index="0" speed="6.78" length="12.52" width="6.00" shape="115.47,76.40 118.87,74.81 120.35,72.79 119.90,70.32 117.53,67.42"/>
    </edge>
    <edge id=":J1_6" function="internal">
        <lane id=":J1_6_0" index="0" speed="13.31" length="22.91" width="6.00" shape="115.47,76.40 120.94,74.00 125.31,70.58 128.57,66.14 130.72,60.67"/>
    </edge>
    <edge id=":J10_0" function="internal">
        <lane id=":J10_0_0" index="0" disallow="pedestrian" speed="13.89" length="19.83" shape="270.76,23.60 269.33,27.84 266.93,32.68 264.13,37.33 261.47,40.98"/>
    </edge>
    <edge id=":J10_1" function="internal">
        <lane id=":J10_1_0" index="0" disallow="pedestrian" speed="7.77" length="5.23" shape="270.76,23.60 269.23,27.65 268.56,28.24"/>
    </edge>
    <edge id=":J10_6" function="internal">
        <lane id=":J10_6_0" index="0" disallow="pedestrian" speed="7.77" length="10.62" shape="268.56,28.24 266.73,29.86 263.26,30.21 258.81,28.72"/>
    </edge>
    <edge id=":J10_2" function="internal">
        <lane id=":J10_2_0" index="0" disallow="pedestrian" speed="6.21" length="9.69" shape="260.22,25.85 262.99,26.80 265.16,26.63 266.70,25.35 267.63,22.94"/>
    </edge>
    <edge id=":J10_3" function="internal">
        <lane id=":J10_3_0" index="0" disallow="pedestrian" speed="8.34" length="18.37" shape="260.22,25.85 263.99,28.60 265.45,32.04 264.61,36.17 261.47,40.98"/>
    </edge>
    <edge id=":J10_4" function="internal">
        <lane id=":J10_4_0" index="0" disallow="pedestrian" speed="6.03" length="9.06" shape="258.93,38.87 260.30,36.68 260.51,34.75 259.54,33.05 257.40,31.60"/>
    </edge>
    <edge id=":J10_5" function="internal">
        <lane id=":J10_5_0" index="0" disallow="pedestrian" speed="13.89" length="18.27" shape="258.93,38.87 261.51,35.46 264.11,31.31 266.29,26.96 267.63,22.94"/>
    </edge>
    <edge id=":J11_0" function="internal">
        <lane id=":J11_0_0" index="0" disallow="pedestrian" speed="6.61" length="10.38" shape="262.14,-18.31 260.45,-20.20 258.42,-20.87 256.03,-20.32 253.30,-18.54"/>
    </edge>
    <edge id=":J11_1" function="internal">
        <lane id=":J11_1_0" index="0" disallow="pedestrian" speed="13.89" length="15.43" shape="262.14,-18.31 259.84,-21.33 256.96,-23.94 253.70,-26.11 250.25,-27.79"/>
    </edge>
    <edge id=":J11_2" function="internal">
        <lane id=":J11_2_0" index="0" disallow="pedestrian" speed="13.89" length="17.43" shape="251.46,-30.75 255.15,-28.87 258.94,-26.25 262.34,-23.19 264.88,-19.96"/>
    </edge>
    <edge id=":J11_3" function="internal">
        <lane id=":J11_3_0" index="0" disallow="pedestrian" speed="7.42" length="5.75" shape="251.46,-30.75 255.76,-28.27 256.17,-27.60"/>
    </edge>
    <edge id=":J11_6" function="internal">
        <lane id=":J11_6_0" index="0" disallow="pedestrian" speed="7.42" length="10.86" shape="256.17,-27.60 257.50,-25.42 256.68,-22.17 253.30,-18.54"/>
    </edge>
    <edge id=":J11_4" function="internal">
        <lane id=":J11_4_0" index="0" disallow="pedestrian" speed="5.70" length="9.21" shape="251.27,-21.02 253.14,-23.03 253.60,-24.83 252.64,-26.42 250.25,-27.79"/>
    </edge>
    <edge id=":J11_5" function="internal">
        <lane id=":J11_5_0" index="0" disallow="pedestrian" speed="8.08" length="16.09" shape="251.27,-21.02 255.37,-23.62 259.01,-24.31 262.18,-23.09 264.88,-19.96"/>
    </edge>
    <edge id=":J12_0" function="internal">
        <lane id=":J12_0_0" index="0" disallow="pedestrian" speed="5.96" length="9.82" shape="209.09,-36.45 208.15,-39.40 206.73,-40.97 204.82,-41.17 202.41,-39.98"/>
    </edge>
    <edge id=":J12_1" function="internal">
        <lane id=":J12_1_0" index="0" disallow="pedestrian" speed="7.39" length="17.19" shape="209.09,-36.45 208.79,-41.67 210.27,-44.70 213.53,-45.54 218.58,-44.21"/>
    </edge>
    <edge id=":J12_2" function="internal">
        <lane id=":J12_2_0" index="0" disallow="pedestrian" speed="5.62" length="9.30" shape="217.37,-41.24 214.64,-41.97 212.87,-41.51 212.07,-39.87 212.23,-37.05"/>
    </edge>
    <edge id=":J12_3" function="internal">
        <lane id=":J12_3_0" index="0" disallow="pedestrian" speed="10.99" length="15.69" shape="217.37,-41.24 213.30,-42.44 209.46,-42.64 205.83,-41.82 202.41,-39.98"/>
    </edge>
    <edge id=":J12_4" function="internal">
        <lane id=":J12_4_0" index="0" disallow="pedestrian" speed="12.02" length="18.90" shape="200.57,-42.60 204.71,-44.83 209.09,-45.84 213.72,-45.63 218.58,-44.21"/>
    </edge>
    <edge id=":J12_5" function="internal">
        <lane id=":J12_5_0" index="0" disallow="pedestrian" speed="7.60" length="6.41" shape="200.57,-42.60 204.81,-44.73 206.47,-44.63"/>
    </edge>
    <edge id=":J12_6" function="internal">
        <lane id=":J12_6_0" index="0" disallow="pedestrian" speed="7.60" length="10.42" shape="206.47,-44.63 208.16,-44.52 210.64,-41.96 212.23,-37.05"/>
    </edge>
    <edge id=":J13_0" function="internal">
        <lane id=":J13_0_0" index="0" disallow="pedestrian" speed="5.57" length="9.38" shape="183.84,-16.29 181.32,-17.69 179.51,-17.66 178.42,-16.22 178.05,-13.37"/>
    </edge>
    <edge id=":J13_1" function="internal">
        <lane id=":J13_1_0" index="0" disallow="pedestrian" speed="7.84" length="16.96" shape="183.84,-16.29 179.98,-19.90 178.46,-23.36 179.29,-26.67 182.48,-29.82"/>
    </edge>
    <edge id=":J13_2" function="internal">
        <lane id=":J13_2_0" index="0" disallow="pedestrian" speed="6.30" length="10.48" shape="184.33,-27.21 182.51,-25.34 182.13,-23.33 183.21,-21.17 185.73,-18.87"/>
    </edge>
    <edge id=":J13_3" function="internal">
        <lane id=":J13_3_0" index="0" disallow="pedestrian" speed="11.42" length="15.80" shape="184.33,-27.21 181.60,-24.69 179.64,-21.55 178.46,-17.77 178.05,-13.37"/>
    </edge>
    <edge id=":J13_4" function="internal">
        <lane id=":J13_4_0" index="0" disallow="pedestrian" speed="12.44" length="18.84" shape="174.85,-13.38 175.35,-18.57 176.78,-23.04 179.16,-26.79 182.48,-29.82"/>
    </edge>
    <edge id=":J13_5" function="internal">
        <lane id=":J13_5_0" index="0" disallow="pedestrian" speed="7.38" length="6.76" shape="174.85,-13.38 175.55,-18.75 176.37,-19.83"/>
    </edge>
    <edge id=":J13_6" function="internal">
        <lane id=":J13_6_0" index="0" disallow="pedestrian" speed="7.38" length="10.85" shape="176.37,-19.83 177.60,-21.45 180.99,-21.49 185.73,-18.87"/>
    </edge>
    <edge id=":J14_0" function="internal">
        <lane id=":J14_0_0" index="0" disallow="pedestrian" speed="13.89" length="17.91" shape="180.51,40.47 178.14,37.04 176.29,32.67 175.08,28.04 174.66,23.85"/>
    </edge>
    <edge id=":J14_1" function="internal">
        <lane id=":J14_1_0" index="0" disallow="pedestrian" speed="8.00" length="5.29" shape="180.51,40.47 178.15,36.93 178.07,35.89"/>
    </edge>
    <edge id=":J14_6" function="internal">
        <lane id=":J14_6_0" index="0" disallow="pedestrian" speed="8.00" length="11.15" shape="178.07,35.89 177.89,33.53 179.74,30.27 183.69,27.15"/>
    </edge>
    <edge id=":J14_2" function="internal">
        <lane id=":J14_2_0" index="0" disallow="pedestrian" speed="6.50" length="10.46" shape="185.35,29.88 182.71,31.92 181.41,34.00 181.45,36.12 182.83,38.27"/>
    </edge>
    <edge id=":J14_3" function="internal">
        <lane id=":J14_3_0" index="0" disallow="pedestrian" speed="7.39" length="17.02" shape="185.35,29.88 180.65,31.97 177.30,31.66 175.30,28.95 174.66,23.85"/>
    </edge>
    <edge id=":J14_4" function="internal">
        <lane id=":J14_4_0" index="0" disallow="pedestrian" speed="5.64" length="9.27" shape="177.86,23.86 178.21,26.64 179.30,28.12 181.12,28.29 183.69,27.15"/>
    </edge>
    <edge id=":J14_5" function="internal">
        <lane id=":J14_5_0" index="0" disallow="pedestrian" speed="13.25" length="15.57" shape="177.86,23.86 178.14,27.71 179.05,31.58 180.60,35.19 182.83,38.27"/>
    </edge>
    <edge id=":J8_0" function="internal">
        <lane id=":J8_0_0" index="0" disallow="pedestrian" speed="12.39" length="18.94" shape="215.62,66.21 211.01,66.33 206.64,65.28 202.52,63.05 198.64,59.66"/>
    </edge>
    <edge id=":J8_1" function="internal">
        <lane id=":J8_1_0" index="0" disallow="pedestrian" speed="7.78" length="6.23" shape="215.62,66.21 211.01,66.16 209.62,65.32"/>
    </edge>
    <edge id=":J8_6" function="internal">
        <lane id=":J8_6_0" index="0" disallow="pedestrian" speed="7.78" length="10.74" shape="209.62,65.32 208.08,64.39 206.83,60.90 207.26,55.68"/>
    </edge>
    <edge id=":J8_2" function="internal">
        <lane id=":J8_2_0" index="0" disallow="pedestrian" speed="6.14" length="10.18" shape="210.40,56.34 210.09,59.60 210.76,61.78 212.42,62.87 215.06,62.89"/>
    </edge>
    <edge id=":J8_3" function="internal">
        <lane id=":J8_3_0" index="0" disallow="pedestrian" speed="7.38" length="17.44" shape="210.40,56.34 208.65,61.38 206.10,63.61 202.77,63.04 198.64,59.66"/>
    </edge>
    <edge id=":J8_4" function="internal">
        <lane id=":J8_4_0" index="0" disallow="pedestrian" speed="5.59" length="9.35" shape="200.97,57.46 203.18,59.27 204.96,59.58 206.33,58.38 207.26,55.68"/>
    </edge>
    <edge id=":J8_5" function="internal">
        <lane id=":J8_5_0" index="0" disallow="pedestrian" speed="11.17" length="15.74" shape="200.97,57.46 204.23,60.32 207.67,62.18 211.28,63.04 215.06,62.89"/>
    </edge>
    <edge id=":J9_0" function="internal">
        <lane id=":J9_0_0" index="0" disallow="pedestrian" speed="6.05" length="9.12" shape="224.99,15.72 222.51,14.92 220.56,15.19 219.14,16.53 218.25,18.96"/>
    </edge>
    <edge id=":J9_1" function="internal">
        <lane id=":J9_1_0" index="0" disallow="pedestrian" speed="10.93" length="15.52" shape="224.99,15.72 220.64,13.99 216.72,13.25 213.21,13.51 210.13,14.77"/>
    </edge>
    <edge id=":J9_2" function="internal">
        <lane id=":J9_2_0" index="0" disallow="pedestrian" speed="13.89" length="21.96" shape="224.99,15.72 219.16,12.08 214.80,8.12 211.36,4.44 208.32,1.61"/>
    </edge>
    <edge id=":J9_3" function="internal">
        <lane id=":J9_3_0" index="0" disallow="pedestrian" speed="13.36" length="5.54" shape="226.39,12.85 222.40,10.17 221.92,9.62"/>
    </edge>
    <edge id=":J9_4" function="internal">
        <lane id=":J9_4_0" index="0" disallow="pedestrian" speed="7.52" length="4.98" shape="226.39,12.85 222.46,10.17 222.36,9.98"/>
    </edge>
    <edge id=":J9_30" function="internal">
        <lane id=":J9_30_0" index="0" disallow="pedestrian" speed="13.36" length="15.54" shape="221.92,9.62 219.20,6.45 216.81,1.68 215.21,-4.13"/>
    </edge>
    <edge id=":J9_31" function="internal">
        <lane id=":J9_31_0" index="0" disallow="pedestrian" speed="7.52" length="11.50" shape="222.36,9.98 220.96,7.18 221.90,3.88 225.28,0.27"/>
    </edge>
    <edge id=":J9_5" function="internal">
        <lane id=":J9_5_0" index="0" disallow="pedestrian" speed="5.86" length="9.45" shape="227.31,2.75 225.34,4.84 224.76,6.74 225.58,8.45 227.80,9.97"/>
    </edge>
    <edge id=":J9_6" function="internal">
        <lane id=":J9_6_0" index="0" disallow="pedestrian" speed="13.89" length="18.80" shape="227.31,2.75 224.41,5.93 221.71,10.21 219.55,14.81 218.25,18.96"/>
    </edge>
    <edge id=":J9_7" function="internal">
        <lane id=":J9_7_0" index="0" disallow="pedestrian" speed="13.89" length="20.98" shape="227.31,2.75 223.59,5.60 218.87,8.97 214.07,12.24 210.13,14.77"/>
    </edge>
    <edge id=":J9_8" function="internal">
        <lane id=":J9_8_0" index="0" disallow="pedestrian" speed="10.58" length="4.93" shape="227.31,2.75 223.04,5.20"/>
    </edge>
    <edge id=":J9_9" function="internal">
        <lane id=":J9_9_0" index="0" disallow="pedestrian" speed="7.80" length="4.75" shape="227.31,2.75 223.18,5.11"/>
    </edge>
    <edge id=":J9_32" function="internal">
        <lane id=":J9_32_0" index="0" disallow="pedestrian" speed="10.58" length="15.72" shape="223.04,5.20 218.45,5.83 213.54,4.63 208.32,1.61"/>
    </edge>
    <edge id=":J9_33" function="internal">
        <lane id=":J9_33_0" index="0" disallow="pedestrian" speed="7.80" length="13.82" shape="223.18,5.11 223.05,5.19 219.61,4.86 217.00,1.75 215.21,-4.13"/>
    </edge>
    <edge id=":J9_10" function="internal">
        <lane id=":J9_10_0" index="0" disallow="pedestrian" speed="6.20" length="11.20" shape="218.35,-4.73 219.44,-0.95 220.96,1.14 222.90,1.55 225.28,0.27"/>
    </edge>
    <edge id=":J9_11" function="internal">
        <lane id=":J9_11_0" index="0" disallow="pedestrian" speed="12.40" length="18.11" shape="218.35,-4.73 219.73,0.35 221.76,4.50 224.46,7.71 227.80,9.97"/>
    </edge>
    <edge id=":J9_12" function="internal">
        <lane id=":J9_12_0" index="0" disallow="pedestrian" speed="13.89" length="23.75" shape="218.35,-4.73 218.87,0.36 219.03,7.12 218.83,13.88 218.25,18.96"/>
    </edge>
    <edge id=":J9_13" function="internal">
        <lane id=":J9_13_0" index="0" disallow="pedestrian" speed="11.65" length="7.97" shape="218.35,-4.73 218.76,1.36 218.33,3.17"/>
    </edge>
    <edge id=":J9_14" function="internal">
        <lane id=":J9_14_0" index="0" disallow="pedestrian" speed="7.45" length="7.42" shape="218.35,-4.73 218.85,1.62 218.40,2.57"/>
    </edge>
    <edge id=":J9_34" function="internal">
        <lane id=":J9_34_0" index="0" disallow="pedestrian" speed="11.65" length="14.69" shape="218.33,3.17 217.52,6.63 214.65,11.10 210.13,14.77"/>
    </edge>
    <edge id=":J9_35" function="internal">
        <lane id=":J9_35_0" index="0" disallow="pedestrian" speed="7.45" length="12.34" shape="218.40,2.57 217.34,4.79 213.83,4.79 208.32,1.61"/>
    </edge>
    <edge id=":J9_15" function="internal">
        <lane id=":J9_15_0" index="0" disallow="pedestrian" speed="5.46" length="9.85" shape="210.21,-0.98 212.96,0.61 214.71,0.61 215.46,-0.97 215.21,-4.13"/>
    </edge>
    <edge id=":J9_16" function="internal">
        <lane id=":J9_16_0" index="0" disallow="pedestrian" speed="9.48" length="16.39" shape="210.21,-0.98 214.44,1.51 218.36,2.54 221.97,2.13 225.28,0.27"/>
    </edge>
    <edge id=":J9_17" function="internal">
        <lane id=":J9_17_0" index="0" disallow="pedestrian" speed="13.89" length="20.74" shape="210.21,-0.98 214.03,1.67 218.83,4.78 223.73,7.75 227.80,9.97"/>
    </edge>
    <edge id=":J9_18" function="internal">
        <lane id=":J9_18_0" index="0" disallow="pedestrian" speed="12.10" length="9.76" shape="210.21,-0.98 214.68,3.18 216.57,6.30"/>
    </edge>
    <edge id=":J9_19" function="internal">
        <lane id=":J9_19_0" index="0" disallow="pedestrian" speed="8.35" length="7.59" shape="210.21,-0.98 214.59,3.22 215.10,4.65"/>
    </edge>
    <edge id=":J9_36" function="internal">
        <lane id=":J9_36_0" index="0" disallow="pedestrian" speed="12.10" length="13.07" shape="216.57,6.30 217.52,7.89 218.71,13.15 218.25,18.96"/>
    </edge>
    <edge id=":J9_37" function="internal">
        <lane id=":J9_37_0" index="0" disallow="pedestrian" speed="8.35" length="12.63" shape="215.10,4.65 216.04,7.24 214.55,11.09 210.13,14.77"/>
    </edge>
    <edge id=":J9_20" function="internal">
        <lane id=":J9_20_0" index="0" disallow="pedestrian" speed="6.91" length="13.38" shape="208.46,12.04 211.34,9.62 212.27,7.08 211.27,4.41 208.32,1.61"/>
    </edge>
    <edge id=":J9_21" function="internal">
        <lane id=":J9_21_0" index="0" disallow="pedestrian" speed="10.64" length="18.75" shape="208.46,12.04 212.18,9.01 214.54,5.31 215.55,0.93 215.21,-4.13"/>
    </edge>
    <edge id=":J9_22" function="internal">
        <lane id=":J9_22_0" index="0" disallow="pedestrian" speed="13.89" length="20.53" shape="208.46,12.04 212.35,9.54 217.02,6.36 221.62,3.08 225.28,0.27"/>
    </edge>
    <edge id=":J9_23" function="internal">
        <lane id=":J9_23_0" index="0" disallow="pedestrian" speed="12.45" length="5.73" shape="208.46,12.04 213.60,9.51"/>
    </edge>
    <edge id=":J9_24" function="internal">
        <lane id=":J9_24_0" index="0" disallow="pedestrian" speed="7.41" length="5.08" shape="208.46,12.04 213.08,9.90"/>
    </edge>
    <edge id=":J9_38" function="internal">
        <lane id=":J9_38_0" index="0" disallow="pedestrian" speed="12.45" length="14.58" shape="213.60,9.51 218.54,8.32 223.27,8.48 227.80,9.97"/>
    </edge>
    <edge id=":J9_39" function="internal">
        <lane id=":J9_39_0" index="0" disallow="pedestrian" speed="7.41" length="13.85" shape="213.08,9.90 213.91,9.52 217.36,9.83 218.80,12.98 218.25,18.96"/>
    </edge>
    <edge id=":J9_25" function="internal">
        <lane id=":J9_25_0" index="0" disallow="pedestrian" speed="5.49" length="9.66" shape="215.12,18.30 215.40,15.25 214.66,13.64 212.91,13.48 210.13,14.77"/>
    </edge>
    <edge id=":J9_26" function="internal">
        <lane id=":J9_26_0" index="0" disallow="pedestrian" speed="11.11" length="19.14" shape="215.12,18.30 215.49,13.45 214.48,9.05 212.09,5.10 208.32,1.61"/>
    </edge>
    <edge id=":J9_27" function="internal">
        <lane id=":J9_27_0" index="0" disallow="pedestrian" speed="13.89" length="22.50" shape="215.12,18.30 215.70,13.42 215.90,7.09 215.73,0.76 215.21,-4.13"/>
    </edge>
    <edge id=":J9_28" function="internal">
        <lane id=":J9_28_0" index="0" disallow="pedestrian" speed="13.89" length="3.42" shape="215.12,18.30 216.20,15.05"/>
    </edge>
    <edge id=":J9_29" function="internal">
        <lane id=":J9_29_0" index="0" disallow="pedestrian" speed="8.33" length="3.39" shape="215.12,18.30 216.20,15.08"/>
    </edge>
    <edge id=":J9_40" function="internal">
        <lane id=":J9_40_0" index="0" disallow="pedestrian" speed="13.89" length="17.48" shape="216.20,15.05 216.60,13.87 219.13,8.64 222.20,3.74 225.28,0.27"/>
    </edge>
    <edge id=":J9_41" function="internal">
        <lane id=":J9_41_0" index="0" disallow="pedestrian" speed="8.33" length="15.01" shape="216.20,15.08 216.95,12.84 219.67,9.63 223.29,8.67 227.80,9.97"/>
    </edge>
    <edge id=":c1_0" function="internal">
        <lane id=":c1_0_0" index="0" speed="7.47" length="11.31" width="6.00" shape="-53.00,10.03 -53.44,6.95 -54.75,4.76 -56.94,3.44 -60.00,3.00"/>
    </edge>
    <edge id=":c1_1" function="internal">
        <lane id=":c1_1_0" index="0" speed="30.00" length="20.03" width="6.00" shape="-53.00,10.03 -53.00,-10.00"/>
    </edge>
    <edge id=":c1_2" function="internal">
        <lane id=":c1_2_0" index="0" speed="10.56" length="6.62" width="6.00" shape="-53.00,10.03 -51.11,5.25 -50.00,4.27"/>
    </edge>
    <edge id=":c1_13" function="internal">
        <lane id=":c1_13_0" index="0" speed="10.56" length="17.98" width="6.00" shape="-50.00,4.27 -46.37,1.08 -40.19,-1.86 -33.98,-2.96"/>
    </edge>
    <edge id=":c1_3" function="internal">
        <lane id=":c1_3_0" index="0" speed="7.46" length="11.29" width="6.00" shape="-33.99,3.04 -37.06,3.47 -39.25,4.78 -40.56,6.96 -41.00,10.03"/>
    </edge>
    <edge id=":c1_4" function="internal">
        <lane id=":c1_4_0" index="0" speed="30.00" length="26.01" width="6.00" shape="-33.99,3.04 -60.00,3.00"/>
    </edge>
    <edge id=":c1_5" function="internal">
        <lane id=":c1_5_0" index="0" speed="10.57" length="10.67" width="6.00" shape="-33.99,3.04 -40.20,1.90 -44.14,0.02"/>
    </edge>
    <edge id=":c1_14" function="internal">
        <lane id=":c1_14_0" index="0" speed="10.57" length="13.93" width="6.00" shape="-44.14,0.02 -46.38,-1.05 -51.11,-5.22 -53.00,-10.00"/>
    </edge>
    <edge id=":c1_6" function="internal">
        <lane id=":c1_6_0" index="0" speed="8.80" length="16.45" width="6.00" shape="-47.00,-10.00 -46.19,-6.93 -43.75,-4.74 -39.68,-3.42 -33.98,-2.96"/>
    </edge>
    <edge id=":c1_7" function="internal">
        <lane id=":c1_7_0" index="0" speed="30.00" length="20.55" width="6.00" shape="-47.00,-10.00 -46.06,-6.17 -44.00,-1.86 -41.94,3.38 -41.00,10.03"/>
        <lane id=":c1_7_1" index="1" speed="30.00" length="20.55" width="6.00" shape="-47.00,-10.00 -47.00,10.03"/>
    </edge>
    <edge id=":c1_9" function="internal">
        <lane id=":c1_9_0" index="0" speed="9.57" length="7.88" width="6.00" shape="-47.00,-10.00 -48.17,-5.38 -50.00,-2.86"/>
    </edge>
    <edge id=":c1_15" function="internal">
        <lane id=":c1_15_0" index="0" speed="9.57" length="11.98" width="6.00" shape="-50.00,-2.86 -51.20,-1.20 -55.38,1.83 -60.00,3.00"/>
    </edge>
    <edge id=":c1_10" function="internal">
        <lane id=":c1_10_0" index="0" speed="7.46" length="11.29" width="6.00" shape="-60.00,-3.00 -56.94,-3.44 -54.75,-4.75 -53.44,-6.94 -53.00,-10.00"/>
    </edge>
    <edge id=":c1_11" function="internal">
        <lane id=":c1_11_0" index="0" speed="30.00" length="26.02" width="6.00" shape="-60.00,-3.00 -33.98,-2.96"/>
    </edge>
    <edge id=":c1_12" function="internal">
        <lane id=":c1_12_0" index="0" speed="9.58" length="7.89" width="6.00" shape="-60.00,-3.00 -55.38,-1.83 -52.85,0.01"/>
    </edge>
    <edge id=":c1_16" function="internal">
        <lane id=":c1_16_0" index="0" speed="9.58" length="11.99" width="6.00" shape="-52.85,0.01 -51.20,1.21 -48.17,5.40 -47.00,10.03"/>
    </edge>
    <edge id=":c2_0" function="internal">
        <lane id=":c2_0_0" index="0" speed="10.49" length="24.17" width="6.00" shape="47.00,17.85 46.04,11.44 43.17,6.86 38.38,4.11 31.68,3.18"/>
    </edge>
    <edge id=":c2_1" function="internal">
        <lane id=":c2_1_0" index="0" speed="18.58" length="32.09" width="6.00" shape="47.00,17.85 46.24,9.82 43.95,2.35 40.14,-4.58 34.81,-10.95"/>
    </edge>
    <edge id=":c2_2" function="internal">
        <lane id=":c2_2_0" index="0" speed="30.00" length="36.33" width="6.00" shape="47.00,17.85 47.00,-18.49"/>
    </edge>
    <edge id=":c2_3" function="internal">
        <lane id=":c2_3_0" index="0" speed="12.42" length="14.61" width="6.00" shape="47.00,17.85 48.40,8.82 51.38,4.23"/>
    </edge>
    <edge id=":c2_4" function="internal">
        <lane id=":c2_4_0" index="0" speed="8.93" length="8.72" width="6.00" shape="47.00,17.85 48.84,10.93 50.08,9.98"/>
    </edge>
    <edge id=":c2_30" function="internal">
        <lane id=":c2_30_0" index="0" speed="12.42" length="20.08" width="6.00" shape="51.38,4.23 52.59,2.37 59.57,-1.51 69.35,-2.82"/>
    </edge>
    <edge id=":c2_31" function="internal">
        <lane id=":c2_31_0" index="0" speed="8.93" length="18.09" width="6.00" shape="50.08,9.98 53.52,7.33 59.75,7.30 66.24,11.11"/>
    </edge>
    <edge id=":c2_5" function="internal">
        <lane id=":c2_5_0" index="0" speed="6.89" length="14.73" width="6.00" shape="62.13,15.49 58.14,12.42 55.28,11.80 53.57,13.61 53.00,17.85"/>
    </edge>
    <edge id=":c2_6" function="internal">
        <lane id=":c2_6_0" index="0" speed="19.48" length="33.02" width="6.00" shape="62.13,15.49 56.54,12.12 47.42,8.06 38.04,4.63 31.68,3.18"/>
    </edge>
    <edge id=":c2_7" function="internal">
        <lane id=":c2_7_0" index="0" speed="21.95" length="38.02" width="6.00" shape="62.13,15.49 34.81,-10.95"/>
    </edge>
    <edge id=":c2_8" function="internal">
        <lane id=":c2_8_0" index="0" speed="19.67" length="14.88" width="6.00" shape="62.13,15.49 55.51,8.04 53.05,3.80"/>
    </edge>
    <edge id=":c2_9" function="internal">
        <lane id=":c2_9_0" index="0" speed="8.71" length="7.48" width="6.00" shape="62.13,15.49 58.36,9.48 58.38,9.10"/>
    </edge>
    <edge id=":c2_32" function="internal">
        <lane id=":c2_32_0" index="0" speed="19.67" length="23.38" width="6.00" shape="53.05,3.80 50.78,-0.10 47.95,-8.94 47.00,-18.49"/>
    </edge>
    <edge id=":c2_33" function="internal">
        <lane id=":c2_33_0" index="0" speed="8.71" length="18.61" width="6.00" shape="58.38,9.10 58.65,3.54 62.49,-1.00 69.35,-2.82"/>
    </edge>
    <edge id=":c2_10" function="internal">
        <lane id=":c2_10_0" index="0" speed="6.70" length="14.16" width="6.00" shape="69.36,3.18 64.83,3.68 62.80,5.17 63.27,7.65 66.24,11.11"/>
    </edge>
    <edge id=":c2_11" function="internal">
        <lane id=":c2_11_0" index="0" speed="10.66" length="25.03" width="6.00" shape="69.36,3.18 62.21,4.11 57.09,6.86 54.02,11.44 53.00,17.85"/>
    </edge>
    <edge id=":c2_12" function="internal">
        <lane id=":c2_12_0" index="0" speed="30.00" length="37.68" width="6.00" shape="69.36,3.18 31.68,3.18"/>
    </edge>
    <edge id=":c2_13" function="internal">
        <lane id=":c2_13_0" index="0" speed="20.23" length="14.18" width="6.00" shape="69.36,3.18 59.56,2.31 55.40,1.09"/>
    </edge>
    <edge id=":c2_14" function="internal">
        <lane id=":c2_14_0" index="0" speed="12.54" length="11.28" width="6.00" shape="69.36,3.18 59.58,1.84 58.36,1.14"/>
    </edge>
    <edge id=":c2_34" function="internal">
        <lane id=":c2_34_0" index="0" speed="20.23" length="24.14" width="6.00" shape="55.40,1.09 50.53,-0.33 42.28,-4.75 34.81,-10.95"/>
    </edge>
    <edge id=":c2_35" function="internal">
        <lane id=":c2_35_0" index="0" speed="12.54" length="24.24" width="6.00" shape="58.36,1.14 52.59,-2.21 48.40,-8.99 47.00,-18.49"/>
    </edge>
    <edge id=":c2_15" function="internal">
        <lane id=":c2_15_0" index="0" speed="9.85" length="21.16" width="6.00" shape="59.00,-18.49 59.65,-11.62 61.59,-6.73 64.82,-3.79 69.35,-2.82"/>
    </edge>
    <edge id=":c2_16" function="internal">
        <lane id=":c2_16_0" index="0" speed="17.78" length="31.12" width="6.00" shape="59.00,-18.49 59.45,-8.08 60.81,0.32 63.07,6.72 66.24,11.11"/>
    </edge>
    <edge id=":c2_17" function="internal">
        <lane id=":c2_17_0" index="0" speed="30.00" length="36.86" width="6.00" shape="59.00,-18.49 58.06,-9.29 56.00,1.56 53.94,11.47 53.00,17.85"/>
    </edge>
    <edge id=":c2_18" function="internal">
        <lane id=":c2_18_0" index="0" speed="12.40" length="10.99" width="6.00" shape="53.00,-18.49 51.67,-8.99 50.96,-7.79"/>
    </edge>
    <edge id=":c2_19" function="internal">
        <lane id=":c2_19_0" index="0" speed="8.75" length="7.41" width="6.00" shape="53.00,-18.49 51.25,-11.60 51.01,-11.40"/>
    </edge>
    <edge id=":c2_36" function="internal">
        <lane id=":c2_36_0" index="0" speed="12.40" length="23.69" width="6.00" shape="50.96,-7.79 47.67,-2.21 41.01,1.84 31.68,3.18"/>
    </edge>
    <edge id=":c2_37" function="internal">
        <lane id=":c2_37_0" index="0" speed="8.75" length="18.60" width="6.00" shape="51.01,-11.40 46.80,-7.71 40.91,-7.33 34.81,-10.95"/>
    </edge>
    <edge id=":c2_20" function="internal">
        <lane id=":c2_20_0" index="0" speed="6.69" length="13.92" width="6.00" shape="39.05,-15.19 42.53,-12.42 45.01,-12.04 46.50,-14.06 47.00,-18.49"/>
    </edge>
    <edge id=":c2_21" function="internal">
        <lane id=":c2_21_0" index="0" speed="18.96" length="33.59" width="6.00" shape="39.05,-15.19 45.60,-9.77 52.83,-5.90 60.75,-3.58 69.35,-2.82"/>
    </edge>
    <edge id=":c2_22" function="internal">
        <lane id=":c2_22_0" index="0" speed="13.89" length="37.83" width="6.00" shape="39.05,-15.19 66.24,11.11"/>
    </edge>
    <edge id=":c2_23" function="internal">