<!-- ============================================================================
 * Research Project: Data communication in the environment of
intelligent cars
 * Author: Kirill Komarov
 * Date: 2026
 * 
 * Description:
 * This file contains source code developed (or modified) as part of the 
 * research for the paper: "Data communication in the environment of
intelligent cars".
 * 
 * DISCLAIMER & ACKNOWLEDGEMENT:
 * Please note that this file contains or may contain code fragments, 
 * algorithms, or architectural solutions that were previously implemented 
 * in the "VaN3Twin" project https://github.com/DriveX-devs/VaN3Twin.git.
 * 
 * The borrowed code has been adapted and is used strictly for academic 
 * and research purposes. All rights to the original code segments belong 
 * to their respective original authors.
 * ============================================================================ -->
<routes>
	
	<route id="pedroute_0" edges="walk_0 walk_1 walk_2 walk_3 walk_4 walk_5 walk_6 walk_7 walk_8 walk_9 walk_10 walk_11 walk_12 walk_13 walk_14 walk_15 walk_16 walk_0"/>
	
        <person id="ped1000" depart="0">
        	<walk route="pedroute_0"/>
        </person>

</routes>
