<!-- number of vehicles:1000 -->
<!-- generated on 2025-12-01 17:51:09.392417 by "cars.rou.xml -t 1000 -e 3000" -->
<routes>
  <route id="0" edges="ne_to_nw"/>
  <route id="1" edges="nw_to_ne"/>

  <vType accel="4" decel="7.5" emergencyDecel="10" minGap="1.0" id="Car0" maxSpeed="40" lcKeepRight="0" lcContRight="0" lcSpeedGain="0" lcCooperative="-1" lcStrategic="-1"/>
  <vType accel="2" decel="7.5" emergencyDecel="10" minGap="1.0" id="Truck" maxSpeed="40" lcKeepRight="0" lcContRight="0" lcSpeedGain="0" lcCooperative="-1" lcStrategic="-1"/>

      <vehicle id="veh1" type="Truck" depart="1.5" route="0" departLane="0" arrivalLane="0">
    </vehicle>
      <vehicle id="veh2" type="Truck" depart="3.0" route="0" departLane="1" arrivalLane="1">
    </vehicle>
      <vehicle id="veh3" type="Car0" depart="4.5" route="1" departLane="2" arrivalLane="2">
    </vehicle>
      <vehicle id="veh4" type="Car0" depart="6.0" route="1" departLane="0" arrivalLane="0">
    </vehicle>
      <vehicle id="veh5" type="Car0" depart="7.5" route="1" departLane="1" arrivalLane="1">
    </vehicle>
      <vehicle id="veh6" type="Car0" depart="9.0" route="1" departLane="2" arrivalLane="2">
    </vehicle>
      <vehicle id="veh7" type="Car0" depart="10.5" route="0" departLane="0" arrivalLane="0">
    </vehicle>
      <vehicle id="veh8" type="Car0" depart="12.0" route="1" departLane="1" arrivalLane="1">
    </vehicle>
      <vehicle id="veh9" type="Car0" depart="13.5" route="0" departLane="2" arrivalLane="2">
    </vehicle>
      <vehicle id="veh10" type="Car0" depart="15.0" route="1" departLane="0" arrivalLane="0">
    </vehicle>
      <vehicle id="veh11" type="Truck" depart="16.5" route="1" departLane="1" arrivalLane="1">
    </vehicle>
      <vehicle id="veh12" type="Truck" depart="18.0" route="0" departLane="2" arrivalLane="2">
    </vehicle>
      <vehicle id="veh13" type="Truck" depart="19.5" route="1" departLane="0" arrivalLane="0">
    </vehicle>
      <vehicle id="veh14" type="Truck" depart="21.0" route="0" departLane="1" arrivalLane="1">
    </vehicle>
      <vehicle id="veh15" type="Truck" depart="22.5" route="1" departLane="2" arrivalLane="2">
    </vehicle>
      <vehicle id="veh16" type="Truck" depart="24.0" route="1" departLane="0" arrivalLane="0">
    </vehicle>
      <vehicle id="veh17" type="Car0" depart="25.5" route="1" departLane="1" arrivalLane="1">
    </vehicle>
      <vehicle id="veh18" type="Truck" depart="27.0" route="1" departLane="2" arrivalLane="2">
    </vehicle>
      <vehicle id="veh19" type="Truck" depart="28.5" route="0" departLane="0" arrivalLane="0">
    </vehicle>
      <vehicle id="veh20" type="Truck" depart="30.0" route="0" departLane="1" arrivalLane="1">
    </vehicle>
      <vehicle id="veh21" type="Truck" depart="31.5" route="0" departLane="2" arrivalLane="2">
    </vehicle>
      <vehicle id="veh22" type="Truck" depart="33.0" route="0" departLane="0" arrivalLane="0">
    </vehicle>
      <vehicle id="veh23" type="Truck" depart="34.5" route="0" departLane="1" arrivalLane="1">
    </vehicle>
      <vehicle id="veh24" type="Car0" depart="36.0" route="1" departLane="2" arrivalLane="2">
    </vehicle>
      <vehicle id="veh25" type="Truck" depart="37.5" route="1" departLane="0" arrivalLane="0">
    </vehicle>
      <vehicle id="veh26" type="Car0" depart="39.0" route="0" departLane="1" arrivalLane="1">
    </vehicle>
      <vehicle id="veh27" type="Car0" depart="40.5" route="0" departLane="2" arrivalLane="2">
    </vehicle>
      <vehicle id="veh28" type="Truck" depart="42.0" route="1" departLane="0" arrivalLane="0">
    </vehicle>
      <vehicle id="veh29" type="Car0" depart="43.5" route="0" departLane="1" arrivalLane="1">
    </vehicle>
      <vehicle id="veh30" type="Truck" depart="45.0" route="0" departLane="2" arrivalLane="2">
    </vehicle>
      <vehicle id="veh31" type="Truck" depart="46.5" route="1" departLane="0" arrivalLane="0">
    </vehicle>
      <vehicle id="veh32" type="Car0" depart="48.0" route="0" departLane="1" arrivalLane="1">
    </vehicle>
      <vehicle id="veh33" type="Car0" depart="49.5" route="1" departLane="2" arrivalLane="2">
    </vehicle>
      <vehicle id="veh34" type="Car0" depart="51.0" route="0" departLane="0" arrivalLane="0">
    </vehicle>
      <vehicle id="veh35" type="Car0" depart="52.5" route="0" departLane="1" arrivalLane="1">
    </vehicle>
      <vehicle id="veh36" type="Truck" depart="54.0" route="0" departLane="2" arrivalLane="2">
    </vehicle>
      <vehicle id="veh37" type="Truck" depart="55.5" route="1" departLane="0" arrivalLane="0">
    </vehicle>
      <vehicle id="veh38" type="Truck" depart="57.0" route="0" departLane="1" arrivalLane="1">
    </vehicle>
      <vehicle id="veh39" type="Car0" depart="58.5" route="1" departLane="2" arrivalLane="2">
    </vehicle>
      <vehicle id="veh40" type="Truck" depart="60.0" route="0" departLane="0" arrivalLane="0">
    </vehicle>
      <vehicle id="veh41" type="Car0" depart="61.5" route="1" departLane="1" arrivalLane="1">
    </vehicle>
      <vehicle id="veh42" type="Car0" depart="63.0" route="0" departLane="2" arrivalLane="2">
    </vehicle>
      <vehicle id="veh43" type="Truck" depart="64.5" route="1" departLane="0" arrivalLane="0">
    </vehicle>
      <vehicle id="veh44" type="Car0" depart="66.0" route="0" departLane="1" arrivalLane="1">
    </vehicle>
      <vehicle id="veh45" type="Car0" depart="67.5" route="0" departLane="2" arrivalLane="2">
    </vehicle>
      <vehicle id="veh46" type="Truck" depart="69.0" route="1" departLane="0" arrivalLane="0">
    </vehicle>
      <vehicle id="veh47" type="Truck" depart="70.5" route="1" departLane="1" arrivalLane="1">
    </vehicle>
      <vehicle id="veh48" type="Truck" depart="72.0" route="1" departLane="2" arrivalLane="2">
    </vehicle>
      <vehicle id="veh49" type="Truck" depart="73.5" route="0" departLane="0" arrivalLane="0">
    </vehicle>
      <vehicle id="veh50" type="Car0" depart="75.0" route="1" departLane="1" arrivalLane="1">
    </vehicle>
      <vehicle id="veh51" type="Car0" depart="76.5" route="1" departLane="2" arrivalLane="2">
    </vehicle>
      <vehicle id="veh52" type="Car0" depart="78.0" route="0" departLane="0" arrivalLane="0">
    </vehicle>
      <vehicle id="veh53" type="Truck" depart="79.5" route="0" departLane="1" arrivalLane="1">
    </vehicle>
      <vehicle id="veh54" type="Car0" depart="81.0" route="0" departLane="2" arrivalLane="2">
    </vehicle>
      <vehicle id="veh55" type="Truck" depart="82.5" route="0" departLane="0" arrivalLane="0">
    </vehicle>
      <vehicle id="veh56" type="Truck" depart="84.0" route="1" departLane="1" arrivalLane="1">
    </vehicle>
      <vehicle id="veh57" type="Truck" depart="85.5" route="0" departLane="2" arrivalLane="2">
    </vehicle>
      <vehicle id="veh58" type="Car0" depart="87.0" route="0" departLane="0" arrivalLane="0">
    </vehicle>
      <vehicle id="veh59" type="Car0" depart="88.5" route="0" departLane="1" arrivalLane="1">
    </vehicle>
      <vehicle id="veh60" type="Car0" depart="90.0" route="0" departLane="2" arrivalLane="2">
    </vehicle>
      <vehicle id="veh61" type="Car0" depart="91.5" route="0" departLane="0" arrivalLane="0">
    </vehicle>
      <vehicle id="veh62" type="Truck" depart="93.0" route="0" departLane="1" arrivalLane="1">
    </vehicle>
      <vehicle id="veh63" type="Truck" depart="94.5" route="1" departLane="2" arrivalLane="2">
    </vehicle>
      <vehicle id="veh64" type="Truck" depart="96.0" route="0" departLane="0" arrivalLane="0">
    </vehicle>
      <vehicle id="veh65" type="Truck" depart="97.5" route="0" departLane="1" arrivalLane="1">
    </vehicle>
      <vehicle id="veh66" type="Truck" depart="99.0" route="0" departLane="2" arrivalLane="2">
    </vehicle>
      <vehicle id="veh67" type="Car0" depart="100.5" route="1" departLane="0" arrivalLane="0">
    </vehicle>
      <vehicle id="veh68" type="Car0" depart="102.0" route="0" departLane="1" arrivalLane="1">
    </vehicle>
      <vehicle id="veh69" type="Truck" depart="103.5" route="1" departLane="2" arrivalLane="2">
    </vehicle>
      <vehicle id="veh70" type="Car0" depart="105.0" route="1" departLane="0" arrivalLane="0">
    </vehicle>
      <vehicle id="veh71" type="Car0" depart="106.5" route="1" departLane="1" arrivalLane="1">
    </vehicle>
      <vehicle id="veh72" type="Car0" depart="108.0" route="1" departLane="2" arrivalLane="2">
    </vehicle>
      <vehicle id="veh73" type="Truck" depart="109.5" route="1" departLane="0" arrivalLane="0">
    </vehicle>
      <vehicle id="veh74" type="Car0" depart="111.0" route="1" departLane="1" arrivalLane="1">
    </vehicle>
      <vehicle id="veh75" type="Truck" depart="112.5" route="0" departLane="2" arrivalLane="2">
    </vehicle>
      <vehicle id="veh76" type="Truck" depart="114.0" route="1" departLane="0" arrivalLane="0">
    </vehicle>
      <vehicle id="veh77" type="Truck" depart="115.5" route="0" departLane="1" arrivalLane="1">
    </vehicle>
      <vehicle id="veh78" type="Car0" depart="117.0" route="1" departLane="2" arrivalLane="2">
    </vehicle>
      <vehicle id="veh79" type="Truck" depart="118.5" route="0" departLane="0" arrivalLane="0">
    </vehicle>
      <vehicle id="veh80" type="Car0" depart="120.0" route="1" departLane="1" arrivalLane="1">
    </vehicle>
      <vehicle id="veh81" type="Truck" depart="121.5" route="1" departLane="2" arrivalLane="2">
    </vehicle>
      <vehicle id="veh82" type="Truck" depart="123.0" route="1" departLane="0" arrivalLane="0">
    </vehicle>
      <vehicle id="veh83" type="Car0" depart="124.5" route="0" departLane="1" arrivalLane="1">
    </vehicle>
      <vehicle id="veh84" type="Truck" depart="126.0" route="0" departLane="2" arrivalLane="2">
    </vehicle>
      <vehicle id="veh85" type="Truck" depart="127.5" route="1" departLane="0" arrivalLane="0">
    </vehicle>
      <vehicle id="veh86" type="Truck" depart="129.0" route="1" departLane="1" arrivalLane="1">
    </vehicle>
      <vehicle id="veh87" type="Car0" depart="130.5" route="0" departLane="2" arrivalLane="2">
    </vehicle>
      <vehicle id="veh88" type="Car0" depart="132.0" route="0" departLane="0" arrivalLane="0">
    </vehicle>
      <vehicle id="veh89" type="Car0" depart="133.5" route="0" departLane="1" arrivalLane="1">
    </vehicle>
      <vehicle id="veh90" type="Car0" depart="135.0" route="1" departLane="2" arrivalLane="2">
    </vehicle>
      <vehicle id="veh91" type="Truck" depart="136.5" route="0" departLane="0" arrivalLane="0">
    </vehicle>
      <vehicle id="veh92" type="Car0" depart="138.0" route="1" departLane="1" arrivalLane="1">
    </vehicle>
      <vehicle id="veh93" type="Truck" depart="139.5" route="1" departLane="2" arrivalLane="2">
    </vehicle>
      <vehicle id="veh94" type="Car0" depart="141.0" route="0" departLane="0" arrivalLane="0">
    </vehicle>
      <vehicle id="veh95" type="Car0" depart="142.5" route="0" departLane="1" arrivalLane="1">
    </vehicle>
      <vehicle id="veh96" type="Car0" depart="144.0" route="0" departLane="2" arrivalLane="2">
    </vehicle>
      <vehicle id="veh97" type="Truck" depart="145.5" route="0" departLane="0" arrivalLane="0">
    </vehicle>
      <vehicle id="veh98" type="Truck" depart="147.0" route="0" departLane="1" arrivalLane="1">
    </vehicle>
      <vehicle id="veh99" type="Car0" depart="148.5" route="0" departLane="2" arrivalLane="2">
    </vehicle>
      <vehicle id="veh100" type="Truck" depart="150.0" route="0" departLane="0" arrivalLane="0">
    </vehicle>
      <vehicle id="veh101" type="Truck" depart="151.5" route="1" departLane="1" arrivalLane="1">
    </vehicle>
      <vehicle id="veh102" type="Truck" depart="153.0" route="0" departLane="2" arrivalLane="2">
    </vehicle>
      <vehicle id="veh103" type="Truck" depart="154.5" route="0" departLane="0" arrivalLane="0">
    </vehicle>
      <vehicle id="veh104" type="Truck" depart="156.0" route="1" departLane="1" arrivalLane="1">
    </vehicle>
      <vehicle id="veh105" type="Truck" depart="157.5" route="1" departLane="2" arrivalLane="2">
    </vehicle>
      <vehicle id="veh106" type="Truck" depart="159.0" route="1" departLane="0" arrivalLane="0">
    </vehicle>
      <vehicle id="veh107" type="Car0" depart="160.5" route="0" departLane="1" arrivalLane="1">
    </vehicle>
      <vehicle id="veh108" type="Truck" depart="162.0" route="0" departLane="2" arrivalLane="2">
    </vehicle>
      <vehicle id="veh109" type="Car0" depart="163.5" route="0" departLane="0" arrivalLane="0">
    </vehicle>
      <vehicle id="veh110" type="Truck" depart="165.0" route="1" departLane="1" arrivalLane="1">
    </vehicle>
      <vehicle id="veh111" type="Truck" depart="166.5" route="0" departLane="2" arrivalLane="2">
    </vehicle>
      <vehicle id="veh112" type="Truck" depart="168.0" route="0" departLane="0" arrivalLane="0">
    </vehicle>
      <vehicle id="veh113" type="Truck" depart="169.5" route="1" departLane="1" arrivalLane="1">
    </vehicle>
      <vehicle id="veh114" type="Truck" depart="171.0" route="0" departLane="2" arrivalLane="2">
    </vehicle>
      <vehicle id="veh115" type="Truck" depart="172.5" route="1" departLane="0" arrivalLane="0">
    </vehicle>
      <vehicle id="veh116" type="Car0" depart="174.0" route="0" departLane="1" arrivalLane="1">
    </vehicle>
      <vehicle id="veh117" type="Truck" depart="175.5" route="0" departLane="2" arrivalLane="2">
    </vehicle>
      <vehicle id="veh118" type="Truck" depart="177.0" route="1" departLane="0" arrivalLane="0">
    </vehicle>
      <vehicle id="veh119" type="Truck" depart="178.5" route="0" departLane="1" arrivalLane="1">
    </vehicle>
      <vehicle id="veh120" type="Car0" depart="180.0" route="1" departLane="2" arrivalLane="2">
    </vehicle>
      <vehicle id="veh121" type="Truck" depart="181.5" route="0" departLane="0" arrivalLane="0">
    </vehicle>
      <vehicle id="veh122" type="Truck" depart="183.0" route="1" departLane="1" arrivalLane="1">
    </vehicle>
      <vehicle id="veh123" type="Truck" depart="184.5" route="1" departLane="2" arrivalLane="2">
    </vehicle>
      <vehicle id="veh124" type="Car0" depart="186.0" route="0" departLane="0" arrivalLane="0">
    </vehicle>
      <vehicle id="veh125" type="Car0" depart="187.5" route="1" departLane="1" arrivalLane="1">
    </vehicle>
      <vehicle id="veh126" type="Truck" depart="189.0" route="1" departLane="2" arrivalLane="2">
    </vehicle>
      <vehicle id="veh127" type="Truck" depart="190.5" route="1" departLane="0" arrivalLane="0">
    </vehicle>
      <vehicle id="veh128" type="Truck" depart="192.0" route="0" departLane="1" arrivalLane="1">
    </vehicle>
      <vehicle id="veh129" type="Car0" depart="193.5" route="0" departLane="2" arrivalLane="2">
    </vehicle>
      <vehicle id="veh130" type="Truck" depart="195.0" route="1" departLane="0" arrivalLane="0">
    </vehicle>
      <vehicle id="veh131" type="Car0" depart="196.5" route="0" departLane="1" arrivalLane="1">
    </vehicle>
      <vehicle id="veh132" type="Car0" depart="198.0" route="0" departLane="2" arrivalLane="2">
    </vehicle>
      <vehicle id="veh133" type="Truck" depart="199.5" route="0" departLane="0" arrivalLane="0">
    </vehicle>
      <vehicle id="veh134" type="Truck" depart="201.0" route="0" departLane="1" arrivalLane="1">
    </vehicle>
      <vehicle id="veh135" type="Truck" depart="202.5" route="0" departLane="2" arrivalLane="2">
    </vehicle>
      <vehicle id="veh136" type="Car0" depart="204.0" route="1" departLane="0" arrivalLane="0">
    </vehicle>
      <vehicle id="veh137" type="Truck" depart="205.5" route="0" departLane="1" arrivalLane="1">
    </vehicle>
      <vehicle id="veh138" type="Car0" depart="207.0" route="1" departLane="2" arrivalLane="2">
    </vehicle>
      <vehicle id="veh139" type="Truck" depart="208.5" route="0" departLane="0" arrivalLane="0">
    </vehicle>
      <vehicle id="veh140" type="Truck" depart="210.0" route="1" departLane="1" arrivalLane="1">
    </vehicle>
      <vehicle id="veh141" type="Car0" depart="211.5" route="0" departLane="2" arrivalLane="2">
    </vehicle>
      <vehicle id="veh142" type="Car0" depart="213.0" route="1" departLane="0" arrivalLane="0">
    </vehicle>
      <vehicle id="veh143" type="Truck" depart="214.5" route="0" departLane="1" arrivalLane="1">
    </vehicle>
      <vehicle id="veh144" type="Truck" depart="216.0" route="0" departLane="2" arrivalLane="2">
    </vehicle>
      <vehicle id="veh145" type="Car0" depart="217.5" route="0" departLane="0" arrivalLane="0">
    </vehicle>
      <vehicle id="veh146" type="Car0" depart="219.0" route="0" departLane="1" arrivalLane="1">
    </vehicle>
      <vehicle id="veh147" type="Truck" depart="220.5" route="0" departLane="2" arrivalLane="2">
    </vehicle>
      <vehicle id="veh148" type="Truck" depart="222.0" route="0" departLane="0" arrivalLane="0">
    </vehicle>
      <vehicle id="veh149" type="Car0" depart="223.5" route="0" departLane="1" arrivalLane="1">
    </vehicle>
      <vehicle id="veh150" type="Truck" depart="225.0" route="1" departLane="2" arrivalLane="2">
    </vehicle>
      <vehicle id="veh151" type="Car0" depart="226.5" route="1" departLane="0" arrivalLane="0">
    </vehicle>
      <vehicle id="veh152" type="Truck" depart="228.0" route="0" departLane="1" arrivalLane="1">
    </vehicle>
      <vehicle id="veh153" type="Car0" depart="229.5" route="0" departLane="2" arrivalLane="2">
    </vehicle>
      <vehicle id="veh154" type="Car0" depart="231.0" route="1" departLane="0" arrivalLane="0">
    </vehicle>
      <vehicle id="veh155" type="Truck" depart="232.5" route="1" departLane="1" arrivalLane="1">
    </vehicle>
      <vehicle id="veh156" type="Truck" depart="234.0" route="1" departLane="2" arrivalLane="2">
    </vehicle>
      <vehicle id="veh157" type="Car0" depart="235.5" route="0" departLane="0" arrivalLane="0">
    </vehicle>
      <vehicle id="veh158" type="Truck" depart="237.0" route="0" departLane="1" arrivalLane="1">
    </vehicle>
      <vehicle id="veh159" type="Car0" depart="238.5" route="0" departLane="2" arrivalLane="2">
    </vehicle>
      <vehicle id="veh160" type="Car0" depart="240.0" route="1" departLane="0" arrivalLane="0">
    </vehicle>
      <vehicle id="veh161" type="Truck" depart="241.5" route="1" departLane="1" arrivalLane="1">
    </vehicle>
      <vehicle id="veh162" type="Car0" depart="243.0" route="1" departLane="2" arrivalLane="2">
    </vehicle>
      <vehicle id="veh163" type="Car0" depart="244.5" route="0" departLane="0" arrivalLane="0">
    </vehicle>
      <vehicle id="veh164" type="Truck" depart="246.0" route="0" departLane="1" arrivalLane="1">
    </vehicle>
      <vehicle id="veh165" type="Car0" depart="247.5" route="1" departLane="2" arrivalLane="2">
    </vehicle>
      <vehicle id="veh166" type="Truck" depart="249.0" route="1" departLane="0" arrivalLane="0">
    </vehicle>
      <vehicle id="veh167" type="Truck" depart="250.5" route="1" departLane="1" arrivalLane="1">
    </vehicle>
      <vehicle id="veh168" type="Truck" depart="252.0" route="0" departLane="2" arrivalLane="2">
    </vehicle>
      <vehicle id="veh169" type="Car0" depart="253.5" route="1" departLane="0" arrivalLane="0">
    </vehicle>
      <vehicle id="veh170" type="Car0" depart="255.0" route="1" departLane="1" arrivalLane="1">
    </vehicle>
      <vehicle id="veh171" type="Car0" depart="256.5" route="1" departLane="2" arrivalLane="2">
    </vehicle>
      <vehicle id="veh172" type="Truck" depart="258.0" route="1" departLane="0" arrivalLane="0">
    </vehicle>
      <vehicle id="veh173" type="Car0" depart="259.5" route="0" departLane="1" arrivalLane="1">
    </vehicle>
      <vehicle id="veh174" type="Car0" depart="261.0" route="1" departLane="2" arrivalLane="2">
    </vehicle>
      <vehicle id="veh175" type="Truck" depart="262.5" route="1" departLane="0" arrivalLane="0">
    </vehicle>
      <vehicle id="veh176" type="Car0" depart="264.0" route="0" departLane="1" arrivalLane="1">
    </vehicle>
      <vehicle id="veh177" type="Car0" depart="265.5" route="1" departLane="2" arrivalLane="2">
    </vehicle>
      <vehicle id="veh178" type="Car0" depart="267.0" route="0" departLane="0" arrivalLane="0">
    </vehicle>
      <vehicle id="veh179" type="Truck" depart="268.5" route="0" departLane="1" arrivalLane="1">
    </vehicle>
      <vehicle id="veh180" type="Truck" depart="270.0" route="1" departLane="2" arrivalLane="2">
    </vehicle>
      <vehicle id="veh181" type="Truck" depart="271.5" route="0" departLane="0" arrivalLane="0">
    </vehicle>
      <vehicle id="veh182" type="Truck" depart="273.0" route="0" departLane="1" arrivalLane="1">
    </vehicle>
      <vehicle id="veh183" type="Truck" depart="274.5" route="1" departLane="2" arrivalLane="2">
    </vehicle>
      <vehicle id="veh184" type="Truck" depart="276.0" route="1" departLane="0" arrivalLane="0">
    </vehicle>
      <vehicle id="veh185" type="Car0" depart="277.5" route="0" departLane="1" arrivalLane="1">
    </vehicle>
      <vehicle id="veh186" type="Car0" depart="279.0" route="0" departLane="2" arrivalLane="2">
    </vehicle>
      <vehicle id="veh187" type="Truck" depart="280.5" route="0" departLane="0" arrivalLane="0">
    </vehicle>
      <vehicle id="veh188" type="Car0" depart="282.0" route="0" departLane="1" arrivalLane="1">
    </vehicle>
      <vehicle id="veh189" type="Car0" depart="283.5" route="0" departLane="2" arrivalLane="2">
    </vehicle>
      <vehicle id="veh190" type="Truck" depart="285.0" route="0" departLane="0" arrivalLane="0">
    </vehicle>
      <vehicle id="veh191" type="Car0" depart="286.5" route="1" departLane="1" arrivalLane="1">
    </vehicle>
      <vehicle id="veh192" type="Car0" depart="288.0" route="0" departLane="2" arrivalLane="2">
    </vehicle>
      <vehicle id="veh193" type="Car0" depart="289.5" route="1" departLane="0" arrivalLane="0">
    </vehicle>
      <vehicle id="veh194" type="Truck" depart="291.0" route="0" departLane="1" arrivalLane="1">
    </vehicle>
      <vehicle id="veh195" type="Truck" depart="292.5" route="0" departLane="2" arrivalLane="2">
    </vehicle>
      <vehicle id="veh196" type="Truck" depart="294.0" route="0" departLane="0" arrivalLane="0">
    </vehicle>
      <vehicle id="veh197" type="Truck" depart="295.5" route="1" departLane="1" arrivalLane="1">
    </vehicle>
      <vehicle id="veh198" type="Car0" depart="297.0" route="0" departLane="2" arrivalLane="2">
    </vehicle>
      <vehicle id="veh199" type="Truck" depart="298.5" route="0" departLane="0" arrivalLane="0">
    </vehicle>
      <vehicle id="veh200" type="Car0" depart="300.0" route="0" departLane="1" arrivalLane="1">
    </vehicle>
      <vehicle id="veh201" type="Car0" depart="301.5" route="1" departLane="2" arrivalLane="2">
    </vehicle>
      <vehicle id="veh202" type="Car0" depart="303.0" route="0" departLane="0" arrivalLane="0">
    </vehicle>
      <vehicle id="veh203" type="Car0" depart="304.5" route="1" departLane="1" arrivalLane="1">
    </vehicle>
      <vehicle id="veh204" type="Truck" depart="306.0" route="0" departLane="2" arrivalLane="2">
    </vehicle>
      <vehicle id="veh205" type="Car0" depart="307.5" route="0" departLane="0" arrivalLane="0">
    </vehicle>
      <vehicle id="veh206" type="Car0" depart="309.0" route="1" departLane="1" arrivalLane="1">
    </vehicle>
      <vehicle id="veh207" type="Truck" depart="310.5" route="1" departLane="2" arrivalLane="2">
    </vehicle>
      <vehicle id="veh208" type="Truck" depart="312.0" route="1" departLane="0" arrivalLane="0">
    </vehicle>
      <vehicle id="veh209" type="Truck" depart="313.5" route="0" departLane="1" arrivalLane="1">
    </vehicle>
      <vehicle id="veh210" type="Truck" depart="315.0" route="1" departLane="2" arrivalLane="2">
    </vehicle>
      <vehicle id="veh211" type="Truck" depart="316.5" route="1" departLane="0" arrivalLane="0">
    </vehicle>
      <vehicle id="veh212" type="Truck" depart="318.0" route="1" departLane="1" arrivalLane="1">
    </vehicle>
      <vehicle id="veh213" type="Truck" depart="319.5" route="1" departLane="2" arrivalLane="2">
    </vehicle>
      <vehicle id="veh214" type="Truck" depart="321.0" route="1" departLane="0" arrivalLane="0">
    </vehicle>
      <vehicle id="veh215" type="Car0" depart="322.5" route="0" departLane="1" arrivalLane="1">
    </vehicle>
      <vehicle id="veh216" type="Truck" depart="324.0" route="0" departLane="2" arrivalLane="2">
    </vehicle>
      <vehicle id="veh217" type="Truck" depart="325.5" route="1" departLane="0" arrivalLane="0">
    </vehicle>
      <vehicle id="veh218" type="Truck" depart="327.0" route="0" departLane="1" arrivalLane="1">
    </vehicle>
      <vehicle id="veh219" type="Truck" depart="328.5" route="1" departLane="2" arrivalLane="2">
    </vehicle>
      <vehicle id="veh220" type="Truck" depart="330.0" route="1" departLane="0" arrivalLane="0">
    </vehicle>
      <vehicle id="veh221" type="Car0" depart="331.5" route="1" departLane="1" arrivalLane="1">
    </vehicle>
      <vehicle id="veh222" type="Car0" depart="333.0" route="1" departLane="2" arrivalLane="2">
    </vehicle>
      <vehicle id="veh223" type="Truck" depart="334.5" route="0" departLane="0" arrivalLane="0">
    </vehicle>
      <vehicle id="veh224" type="Truck" depart="336.0" route="1" departLane="1" arrivalLane="1">
    </vehicle>
      <vehicle id="veh225" type="Car0" depart="337.5" route="0" departLane="2" arrivalLane="2">
    </vehicle>
      <vehicle id="veh226" type="Car0" depart="339.0" route="0" departLane="0" arrivalLane="0">
    </vehicle>
      <vehicle id="veh227" type="Car0" depart="340.5" route="0" departLane="1" arrivalLane="1">
    </vehicle>
      <vehicle id="veh228" type="Truck" depart="342.0" route="1" departLane="2" arrivalLane="2">
    </vehicle>
      <vehicle id="veh229" type="Car0" depart="343.5" route="0" departLane="0" arrivalLane="0">
    </vehicle>
      <vehicle id="veh230" type="Truck" depart="345.0" route="1" departLane="1" arrivalLane="1">
    </vehicle>
      <vehicle id="veh231" type="Car0" depart="346.5" route="1" departLane="2" arrivalLane="2">
    </vehicle>
      <vehicle id="veh232" type="Car0" depart="348.0" route="1" departLane="0" arrivalLane="0">
    </vehicle>
      <vehicle id="veh233" type="Truck" depart="349.5" route="1" departLane="1" arrivalLane="1">
    </vehicle>
      <vehicle id="veh234" type="Truck" depart="351.0" route="1" departLane="2" arrivalLane="2">
    </vehicle>
      <vehicle id="veh235" type="Car0" depart="352.5" route="1" departLane="0" arrivalLane="0">
    </vehicle>
      <vehicle id="veh236" type="Car0" depart="354.0" route="0" departLane="1" arrivalLane="1">
    </vehicle>
      <vehicle id="veh237" type="Car0" depart="355.5" route="1" departLane="2" arrivalLane="2">
    </vehicle>
      <vehicle id="veh238" type="Car0" depart="357.0" route="1" departLane="0" arrivalLane="0">
    </vehicle>
      <vehicle id="veh239" type="Truck" depart="358.5" route="1" departLane="1" arrivalLane="1">
    </vehicle>
      <vehicle id="veh240" type="Truck" depart="360.0" route="0" departLane="2" arrivalLane="2">
    </vehicle>
      <vehicle id="veh241" type="Car0" depart="361.5" route="1" departLane="0" arrivalLane="0">
    </vehicle>
      <vehicle id="veh242" type="Truck" depart="363.0" route="0" departLane="1" arrivalLane="1">
    </vehicle>
      <vehicle id="veh243" type="Truck" depart="364.5" route="0" departLane="2" arrivalLane="2">
    </vehicle>
      <vehicle id="veh244" type="Truck" depart="366.0" route="1" departLane="0" arrivalLane="0">
    </vehicle>
      <vehicle id="veh245" type="Truck" depart="367.5" route="1" departLane="1" arrivalLane="1">
    </vehicle>
      <vehicle id="veh246" type="Truck" depart="369.0" route="0" departLane="2" arrivalLane="2">
    </vehicle>
      <vehicle id="veh247" type="Car0" depart="370.5" route="0" departLane="0" arrivalLane="0">
    </vehicle>
      <vehicle id="veh248" type="Car0" depart="372.0" route="1" departLane="1" arrivalLane="1">
    </vehicle>
      <vehicle id="veh249" type="Car0" depart="373.5" route="1" departLane="2" arrivalLane="2">
    </vehicle>
      <vehicle id="veh250" type="Truck" depart="375.0" route="0" departLane="0" arrivalLane="0">
    </vehicle>
      <vehicle id="veh251" type="Car0" depart="376.5" route="0" departLane="1" arrivalLane="1">
    </vehicle>
      <vehicle id="veh252" type="Car0" depart="378.0" route="0" departLane="2" arrivalLane="2">
    </vehicle>
      <vehicle id="veh253" type="Car0" depart="379.5" route="0" departLane="0" arrivalLane="0">
    </vehicle>
      <vehicle id="veh254" type="Truck" depart="381.0" route="0" departLane="1" arrivalLane="1">
    </vehicle>
      <vehicle id="veh255" type="Truck" depart="382.5" route="0" departLane="2" arrivalLane="2">
    </vehicle>
      <vehicle id="veh256" type="Truck" depart="384.0" route="0" departLane="0" arrivalLane="0">
    </vehicle>
      <vehicle id="veh257" type="Truck" depart="385.5" route="1" departLane="1" arrivalLane="1">
    </vehicle>
      <vehicle id="veh258" type="Truck" depart="387.0" route="1" departLane="2" arrivalLane="2">
    </vehicle>
      <vehicle id="veh259" type="Car0" depart="388.5" route="1" departLane="0" arrivalLane="0">
    </vehicle>
      <vehicle id="veh260" type="Car0" depart="390.0" route="0" departLane="1" arrivalLane="1">
    </vehicle>
      <vehicle id="veh261" type="Truck" depart="391.5" route="1" departLane="2" arrivalLane="2">
    </vehicle>
      <vehicle id="veh262" type="Truck" depart="393.0" route="1" departLane="0" arrivalLane="0">
    </vehicle>
      <vehicle id="veh263" type="Car0" depart="394.5" route="1" departLane="1" arrivalLane="1">
    </vehicle>
      <vehicle id="veh264" type="Truck" depart="396.0" route="1" departLane="2" arrivalLane="2">
    </vehicle>
      <vehicle id="veh265" type="Car0" depart="397.5" route="0" departLane="0" arrivalLane="0">
    </vehicle>