<?xml version="1.0" encoding="UTF-8"?>

<!-- generated on 2025-12-01 14:24:03 by Eclipse SUMO netedit Version 1.20.0
<configuration xmlns:xsi="http://www.w3.org/2001/XMLSchema-instance" xsi:noNamespaceSchemaLocation="http://sumo.dlr.de/xsd/neteditConfiguration.xsd">

    <input>
        <sumo-net-file value="src/automotive/examples/sumo_files_v2v_foresee/map.net.xml"/>
    </input>

    <output>
        <output-file value="src/automotive/examples/sumo_files_v2v_foresee/map.net.xml"/>
    </output>

    <processing>
        <geometry.min-radius.fix.railways value="false"/>
        <geometry.max-grade.fix value="false"/>
        <offset.disable-normalization value="true"/>
        <lefthand value="0"/>
    </processing>

    <junctions>
        <no-internal-links value="true"/>
        <no-turnarounds value="true"/>
        <junctions.corner-detail value="5"/>
        <junctions.limit-turn-speed value="5.50"/>
        <rectangular-lane-cut value="0"/>
    </junctions>

    <pedestrian>
        <walkingareas value="0"/>
    </pedestrian>

</configuration>
-->

<net version="1.20" junctionCornerDetail="5" limitTurnSpeed="5.50" xmlns:xsi="http://www.w3.org/2001/XMLSchema-instance" xsi:noNamespaceSchemaLocation="http://sumo.dlr.de/xsd/net_file.xsd">

    <location netOffset="-394175.96,-4989734.74" convBoundary="-2500.00,-5.45,2500.00,-5.45" origBoundary="7.655664,45.053168,7.678963,45.076295" projParameter="+proj=utm +zone=32 +ellps=WGS84 +datum=WGS84 +units=m +no_defs"/>

    <edge id="ne_to_nw" from="ne" to="nw" priority="-1" length="5000.00">
        <lane id="ne_to_nw_0" index="0" speed="40.00" length="5000.00" width="3.00" shape="2500.00,2.05 -2500.00,2.05"/>
        <lane id="ne_to_nw_1" index="1" speed="40.00" length="5000.00" width="3.00" shape="2500.00,-0.95 -2500.00,-0.95"/>
        <lane id="ne_to_nw_2" index="2" speed="40.00" length="5000.00" width="3.00" shape="2500.00,-3.95 -2500.00,-3.95"/>
    </edge>
    <edge id="nw_to_ne" from="nw" to="ne" priority="-1" length="5000.00">
        <lane id="nw_to_ne_0" index="0" speed="40.00" length="5000.00" width="3.00" shape="-2500.00,-12.95 2500.00,-12.95"/>
        <lane id="nw_to_ne_1" index="1" speed="40.00" length="5000.00" width="3.00" shape="-2500.00,-9.95 2500.00,-9.95"/>
        <lane id="nw_to_ne_2" index="2" speed="40.00" length="5000.00" width="3.00" shape="-2500.00,-6.95 2500.00,-6.95"/>
    </edge>

    <junction id="ne" type="dead_end" x="2500.00" y="-5.45" incLanes="nw_to_ne_0 nw_to_ne_1 nw_to_ne_2" intLanes="" shape="2500.00,-5.45 2500.00,-14.45 2500.00,-5.45"/>
    <junction id="nw" type="dead_end" x="-2500.00" y="-5.45" incLanes="ne_to_nw_0 ne_to_nw_1 ne_to_nw_2" intLanes="" shape="-2500.00,-5.45 -2500.00,3.55 -2500.00,-5.45"/>

</net>
