<?xml version="1.0" encoding="UTF-8"?>
<!-- ============================================================================
 * Research Project: Data communication in the environment of
intelligent cars
 * Author: Kirill Komarov
 * Date: 2026
 * 
 * Description:
 * This file contains source code developed (or modified) as part of the 
 * research for the paper: "Data communication in the environment of
intelligent cars".
 * 
 * DISCLAIMER & ACKNOWLEDGEMENT:
 * Please note that this file contains or may contain code fragments, 
 * algorithms, or architectural solutions that were previously implemented 
 * in the "VaN3Twin" project https://github.com/DriveX-devs/VaN3Twin.git.
 * 
 * The borrowed code has been adapted and is used strictly for academic 
 * and research purposes. All rights to the original code segments belong 
 * to their respective original authors.
 * ============================================================================ -->

<!-- generated on 2026-05-10 06:22:52 by Eclipse SUMO netedit Version 1.18.0
<configuration xmlns:xsi="http://www.w3.org/2001/XMLSchema-instance" xsi:noNamespaceSchemaLocation="http://sumo.dlr.de/xsd/neteditConfiguration.xsd">

    <input>
        <sumo-net-file value="/home/kirill/VaN3Twin/ns-3-dev/src/automotive/examples/tlm_map_2/map.net.xml"/>
    </input>

    <output>
        <output-file value="/home/kirill/VaN3Twin/ns-3-dev/src/automotive/examples/tlm_map_2/map.net.xml"/>
    </output>

    <processing>
        <geometry.min-radius.fix.railways value="false"/>
        <geometry.max-grade.fix value="false"/>
        <offset.disable-normalization value="true"/>
        <lefthand value="0"/>
    </processing>

    <junctions>
        <no-turnarounds value="true"/>
        <junctions.corner-detail value="5"/>
        <junctions.limit-turn-speed value="5.50"/>
        <rectangular-lane-cut value="0"/>
    </junctions>

    <pedestrian>
        <walkingareas value="0"/>
    </pedestrian>

</configuration>
-->

<net version="1.16" junctionCornerDetail="5" limitTurnSpeed="5.50" xmlns:xsi="http://www.w3.org/2001/XMLSchema-instance" xsi:noNamespaceSchemaLocation="http://sumo.dlr.de/xsd/net_file.xsd">

    <location netOffset="-394175.96,-4989734.74" convBoundary="-154.58,-98.65,160.78,101.35" origBoundary="7.655664,45.053168,7.678963,45.076295" projParameter="+proj=utm +zone=32 +ellps=WGS84 +datum=WGS84 +units=m +no_defs"/>

    <edge id=":c1_0" function="internal">
        <lane id=":c1_0_0" index="0" speed="7.48" length="11.33" width="6.00" shape="-45.69,9.01 -48.76,9.45 -50.95,10.77 -52.27,12.97 -52.71,16.05"/>
    </edge>
    <edge id=":c1_1" function="internal">
        <lane id=":c1_1_0" index="0" speed="30.00" length="32.01" width="6.00" shape="-45.69,9.01 -77.70,9.01"/>
        <lane id=":c1_1_1" index="1" speed="30.00" length="32.01" width="6.00" shape="-45.69,3.01 -77.70,3.01"/>
    </edge>
    <edge id=":c1_3" function="internal">
        <lane id=":c1_3_0" index="0" speed="11.71" length="30.66" width="6.00" shape="-45.69,3.01 -54.00,1.82 -59.94,-1.74 -63.51,-7.69 -64.71,-16.01"/>
    </edge>
    <edge id=":c1_4" function="internal">
        <lane id=":c1_4_0" index="0" speed="8.80" length="16.46" width="6.00" shape="-52.71,-16.03 -52.26,-10.33 -50.94,-6.25 -48.75,-3.81 -45.69,-2.99"/>
    </edge>
    <edge id=":c1_5" function="internal">
        <lane id=":c1_5_0" index="0" speed="30.00" length="32.06" width="6.00" shape="-52.71,-16.03 -52.71,16.05"/>
        <lane id=":c1_5_1" index="1" speed="30.00" length="32.06" width="6.00" shape="-58.71,-16.02 -58.71,16.04"/>
    </edge>
    <edge id=":c1_7" function="internal">
        <lane id=":c1_7_0" index="0" speed="11.70" length="10.10" width="6.00" shape="-58.71,-16.02 -59.88,-7.69 -60.75,-6.25"/>
    </edge>
    <edge id=":c1_15" function="internal">
        <lane id=":c1_15_0" index="0" speed="11.70" length="20.58" width="6.00" shape="-60.75,-6.25 -63.44,-1.75 -69.38,1.82 -77.70,3.01"/>
    </edge>
    <edge id=":c1_8" function="internal">
        <lane id=":c1_8_0" index="0" speed="7.46" length="11.29" width="6.00" shape="-77.70,-8.99 -74.64,-9.43 -72.45,-10.74 -71.14,-12.93 -70.71,-16.00"/>
    </edge>
    <edge id=":c1_9" function="internal">
        <lane id=":c1_9_0" index="0" speed="30.00" length="32.61" width="6.00" shape="-77.70,-8.99 -69.18,-8.05 -59.82,-5.99 -51.40,-3.93 -45.69,-2.99"/>
    </edge>
    <edge id=":c1_10" function="internal">
        <lane id=":c1_10_0" index="0" speed="11.70" length="30.67" width="6.00" shape="-77.70,-2.99 -69.38,-1.80 -63.44,1.77 -59.88,7.71 -58.71,16.04"/>
    </edge>
    <edge id=":c1_11" function="internal">
        <lane id=":c1_11_0" index="0" speed="7.46" length="11.29" width="6.00" shape="-70.71,16.01 -71.14,12.95 -72.45,10.76 -74.64,9.45 -77.70,9.01"/>
    </edge>
    <edge id=":c1_12" function="internal">
        <lane id=":c1_12_0" index="0" speed="30.00" length="32.02" width="6.00" shape="-70.71,16.01 -70.71,-16.00"/>
        <lane id=":c1_12_1" index="1" speed="30.00" length="32.02" width="6.00" shape="-64.71,16.02 -64.71,-16.01"/>
    </edge>
    <edge id=":c1_14" function="internal">
        <lane id=":c1_14_0" index="0" speed="11.72" length="10.04" width="6.00" shape="-64.71,16.02 -63.51,7.71 -62.67,6.31"/>
    </edge>
    <edge id=":c1_16" function="internal">
        <lane id=":c1_16_0" index="0" speed="11.72" length="20.62" width="6.00" shape="-62.67,6.31 -59.94,1.76 -54.00,-1.80 -45.69,-2.99"/>
    </edge>
    <edge id=":c2_0" function="internal">
        <lane id=":c2_0_0" index="0" speed="7.15" length="15.63" width="6.00" shape="63.41,15.37 58.82,12.11 55.52,11.27 53.52,12.85 52.82,16.85"/>
    </edge>
    <edge id=":c2_1" function="internal">
        <lane id=":c2_1_0" index="0" speed="20.76" length="34.12" width="6.00" shape="63.41,15.37 58.01,13.00 49.09,10.97 39.01,9.54 30.13,9.00"/>
    </edge>
    <edge id=":c2_2" function="internal">
        <lane id=":c2_2_0" index="0" speed="13.89" length="40.09" width="6.00" shape="63.41,15.37 33.11,-10.89"/>
    </edge>
    <edge id=":c2_3" function="internal">
        <lane id=":c2_3_0" index="0" speed="13.75" length="14.03" width="6.00" shape="63.41,15.37 56.33,8.14 54.35,4.76"/>
    </edge>
    <edge id=":c2_4" function="internal">
        <lane id=":c2_4_0" index="0" speed="8.64" length="7.30" width="6.00" shape="63.41,15.37 59.42,9.50 59.42,9.29"/>
    </edge>
    <edge id=":c2_31" function="internal">
        <lane id=":c2_31_0" index="0" speed="13.75" length="18.87" width="6.00" shape="54.35,4.76 52.12,0.97 50.77,-6.15 52.29,-13.21"/>
    </edge>
    <edge id=":c2_32" function="internal">
        <lane id=":c2_32_0" index="0" speed="8.64" length="18.89" width="6.00" shape="59.42,9.29 59.57,3.50 63.33,-1.19 70.16,-3.10"/>
    </edge>
    <edge id=":c2_5" function="internal">
        <lane id=":c2_5_0" index="0" speed="6.72" length="14.55" width="6.00" shape="70.19,2.90 65.47,3.42 63.42,4.91 64.03,7.37 67.30,10.80"/>
    </edge>
    <edge id=":c2_6" function="internal">
        <lane id=":c2_6_0" index="0" speed="10.75" length="25.23" width="6.00" shape="70.19,2.90 62.64,3.80 57.24,6.43 53.96,10.78 52.82,16.85"/>
    </edge>
    <edge id=":c2_7" function="internal">
        <lane id=":c2_7_0" index="0" speed="30.00" length="40.30" width="6.00" shape="70.19,2.90 63.22,3.86 52.03,5.96 39.90,8.05 30.13,9.00"/>
        <lane id=":c2_7_1" index="1" speed="30.00" length="40.30" width="6.00" shape="70.19,2.90 30.13,3.00"/>
    </edge>
    <edge id=":c2_9" function="internal">
        <lane id=":c2_9_0" index="0" speed="21.84" length="8.85" width="6.00" shape="70.19,2.90 62.81,1.22 61.59,0.80"/>
    </edge>
    <edge id=":c2_10" function="internal">
        <lane id=":c2_10_0" index="0" speed="10.27" length="12.69" width="6.00" shape="70.19,2.90 61.02,2.15 57.77,0.87"/>
    </edge>
    <edge id=":c2_33" function="internal">
        <lane id=":c2_33_0" index="0" speed="21.84" length="30.85" width="6.00" shape="61.59,0.80 51.18,-2.75 39.78,-7.34 33.11,-10.89"/>
    </edge>
    <edge id=":c2_34" function="internal">
        <lane id=":c2_34_0" index="0" speed="10.27" length="17.53" width="6.00" shape="57.77,0.87 54.28,-0.51 51.02,-5.48 52.29,-13.21"/>
    </edge>
    <edge id=":c2_11" function="internal">
        <lane id=":c2_11_0" index="0" speed="8.08" length="17.72" width="6.00" shape="57.82,-10.89 57.36,-7.45 59.26,-5.01 63.52,-3.56 70.16,-3.10"/>
    </edge>
    <edge id=":c2_12" function="internal">
        <lane id=":c2_12_0" index="0" speed="12.14" length="25.31" width="6.00" shape="57.82,-10.89 56.84,-5.78 58.09,-0.45 61.58,5.07 67.30,10.80"/>
    </edge>
    <edge id=":c2_13" function="internal">
        <lane id=":c2_13_0" index="0" speed="30.00" length="28.24" width="6.00" shape="57.82,-10.89 56.23,-5.32 54.62,2.83 53.35,11.05 52.82,16.85"/>
    </edge>
    <edge id=":c2_14" function="internal">
        <lane id=":c2_14_0" index="0" speed="14.38" length="6.85" width="6.00" shape="57.82,-10.89 54.11,-5.13"/>
    </edge>
    <edge id=":c2_15" function="internal">
        <lane id=":c2_15_0" index="0" speed="10.56" length="6.26" width="6.00" shape="57.82,-10.89 54.23,-5.78"/>
    </edge>
    <edge id=":c2_35" function="internal">
        <lane id=":c2_35_0" index="0" speed="14.38" length="26.03" width="6.00" shape="54.11,-5.13 53.91,-4.81 47.99,-0.47 40.06,2.13 30.13,3.00"/>
    </edge>
    <edge id=":c2_36" function="internal">
        <lane id=":c2_36_0" index="0" speed="10.56" length="24.43" width="6.00" shape="54.23,-5.78 53.17,-4.28 47.34,-2.74 40.57,-5.28 33.11,-10.89"/>
    </edge>
    <edge id=":c2_16" function="internal">
        <lane id=":c2_16_0" index="0" speed="8.38" length="18.39" width="6.00" shape="37.08,-15.39 42.44,-11.37 46.77,-9.66 50.05,-10.28 52.29,-13.21"/>
    </edge>
    <edge id=":c2_17" function="internal">
        <lane id=":c2_17_0" index="0" speed="20.66" length="35.44" width="6.00" shape="37.08,-15.39 43.13,-12.07 53.15,-8.00 63.41,-4.54 70.16,-3.10"/>
    </edge>
    <edge id=":c2_18" function="internal">
        <lane id=":c2_18_0" index="0" speed="13.89" length="39.99" width="6.00" shape="37.08,-15.39 67.30,10.80"/>
    </edge>
    <edge id=":c2_19" function="internal">
        <lane id=":c2_19_0" index="0" speed="18.69" length="14.04" width="6.00" shape="37.08,-15.39 44.04,-8.11 46.16,-4.76"/>
    </edge>
    <edge id=":c2_20" function="internal">
        <lane id=":c2_20_0" index="0" speed="8.66" length="7.10" width="6.00" shape="37.08,-15.39 40.99,-9.47"/>
    </edge>
    <edge id=":c2_37" function="internal">
        <lane id=":c2_37_0" index="0" speed="18.69" length="22.98" width="6.00" shape="46.16,-4.76 48.98,-0.31 51.91,8.01 52.82,16.85"/>
    </edge>
    <edge id=":c2_38" function="internal">
        <lane id=":c2_38_0" index="0" speed="8.66" length="19.07" width="6.00" shape="40.99,-9.47 40.77,-3.49 36.98,1.14 30.13,3.00"/>
    </edge>
    <edge id=":c2_21" function="internal">
        <lane id=":c2_21_0" index="0" speed="6.71" length="14.44" width="6.00" shape="30.13,-3.00 34.79,-3.49 36.84,-4.97 36.28,-7.44 33.11,-10.89"/>
    </edge>
    <edge id=":c2_22" function="internal">
        <lane id=":c2_22_0" index="0" speed="12.81" length="25.84" width="6.00" shape="30.13,-3.00 38.22,-3.64 44.61,-5.55 49.30,-8.75 52.29,-13.21"/>
    </edge>
    <edge id=":c2_23" function="internal">
        <lane id=":c2_23_0" index="0" speed="30.00" length="40.03" width="6.00" shape="30.13,-3.00 70.16,-3.10"/>
    </edge>
    <edge id=":c2_24" function="internal">
        <lane id=":c2_24_0" index="0" speed="21.95" length="8.81" width="6.00" shape="30.13,-3.00 37.51,-1.30 38.67,-0.90"/>
    </edge>
    <edge id=":c2_25" function="internal">
        <lane id=":c2_25_0" index="0" speed="12.31" length="11.78" width="6.00" shape="30.13,-3.00 40.13,-1.76 41.63,-0.98"/>
    </edge>
    <edge id=":c2_39" function="internal">
        <lane id=":c2_39_0" index="0" speed="21.95" length="30.98" width="6.00" shape="38.67,-0.90 49.16,2.68 60.59,7.27 67.30,10.80"/>
    </edge>
    <edge id=":c2_40" function="internal">
        <lane id=":c2_40_0" index="0" speed="12.31" length="22.63" width="6.00" shape="41.63,-0.98 47.25,1.96 51.48,8.16 52.82,16.85"/>
    </edge>
    <edge id=":c2_26" function="internal">
        <lane id=":c2_26_0" index="0" speed="9.63" length="20.28" width="6.00" shape="46.82,16.78 45.81,13.38 42.69,10.95 37.46,9.49 30.13,9.00"/>
    </edge>
    <edge id=":c2_27" function="internal">
        <lane id=":c2_27_0" index="0" speed="17.37" length="31.86" width="6.00" shape="46.82,16.78 46.03,9.26 43.48,2.14 39.17,-4.58 33.11,-10.89"/>
    </edge>
    <edge id=":c2_28" function="internal">
        <lane id=":c2_28_0" index="0" speed="30.00" length="30.54" width="6.00" shape="46.82,16.78 47.43,10.63 48.85,1.64 50.63,-7.29 52.29,-13.21"/>
    </edge>
    <edge id=":c2_29" function="internal">
        <lane id=":c2_29_0" index="0" speed="12.50" length="11.90" width="6.00" shape="46.82,16.78 48.36,8.13 50.16,5.59"/>
    </edge>
    <edge id=":c2_30" function="internal">
        <lane id=":c2_30_0" index="0" speed="9.20" length="8.10" width="6.00" shape="46.82,16.78 48.81,9.77 49.48,9.32"/>
    </edge>
    <edge id=":c2_41" function="internal">
        <lane id=":c2_41_0" index="0" speed="12.50" length="22.88" width="6.00" shape="50.16,5.59 52.76,1.93 60.03,-1.81 70.16,-3.10"/>
    </edge>
    <edge id=":c2_42" function="internal">
        <lane id=":c2_42_0" index="0" speed="9.20" length="19.75" width="6.00" shape="49.48,9.32 53.72,6.46 60.31,6.82 67.30,10.80"/>
    </edge>
    <edge id=":e_0" function="internal">
        <lane id=":e_0_0" index="0" speed="15.77" length="28.53" width="6.00" shape="154.27,-14.95 158.31,-8.06 160.62,-1.28 161.21,5.40 160.06,11.97"/>
    </edge>
    <edge id=":e_1" function="internal">
        <lane id=":e_1_0" index="0" speed="9.00" length="9.06" width="6.00" shape="154.27,-14.95 157.06,-8.46 156.76,-6.49"/>
    </edge>
    <edge id=":e_6" function="internal">
        <lane id=":e_6_0" index="0" speed="9.00" length="16.35" width="6.00" shape="156.76,-6.49 156.23,-2.88 152.17,1.04 145.27,2.54"/>
    </edge>
    <edge id=":e_2" function="internal">
        <lane id=":e_2_0" index="0" speed="6.73" length="12.91" width="6.00" shape="145.24,-3.46 149.16,-3.98 151.15,-5.49 151.22,-7.99 149.37,-11.48"/>
    </edge>
    <edge id=":e_3" function="internal">
        <lane id=":e_3_0" index="0" speed="9.92" length="26.45" width="6.00" shape="145.24,-3.46 153.52,-2.54 158.75,0.35 160.93,5.18 160.06,11.97"/>
    </edge>
    <edge id=":e_4" function="internal">
        <lane id=":e_4_0" index="0" speed="7.59" length="14.49" width="6.00" shape="154.33,10.21 154.66,6.83 153.26,4.43 150.13,2.99 145.27,2.54"/>
    </edge>
    <edge id=":e_5" function="internal">
        <lane id=":e_5_0" index="0" speed="14.23" length="23.04" width="6.00" shape="154.33,10.21 155.20,5.02 154.66,-0.33 152.72,-5.83 149.37,-11.48"/>
    </edge>
    <edge id=":n1_0" function="internal">
        <lane id=":n1_0_0" index="0" speed="30.00" length="35.73" width="6.00" shape="-45.85,104.35 -52.77,103.49 -63.46,101.47 -74.09,99.11 -80.82,97.24"/>
    </edge>
    <edge id=":n1_1" function="internal">
        <lane id=":n1_1_0" index="0" speed="11.56" length="29.88" width="6.00" shape="-45.85,104.35 -54.17,103.22 -60.10,99.84 -63.66,94.20 -64.83,86.30"/>
    </edge>
    <edge id=":n1_2" function="internal">
        <lane id=":n1_2_0" index="0" speed="8.57" length="15.55" width="6.00" shape="-52.83,86.32 -52.40,91.58 -51.10,95.34 -48.91,97.60 -45.85,98.35"/>
    </edge>
    <edge id=":n1_3" function="internal">
        <lane id=":n1_3_0" index="0" speed="10.43" length="30.67" width="6.00" shape="-58.83,86.31 -60.49,94.46 -65.06,98.73 -72.02,99.52 -80.82,97.24"/>
    </edge>
    <edge id=":n1_4" function="internal">
        <lane id=":n1_4_0" index="0" speed="6.91" length="12.06" width="6.00" shape="-78.65,91.64 -75.24,92.44 -72.80,91.81 -71.33,89.76 -70.83,86.29"/>
    </edge>
    <edge id=":n1_5" function="internal">
        <lane id=":n1_5_0" index="0" speed="30.00" length="33.53" width="6.00" shape="-78.65,91.64 -72.26,93.45 -62.38,95.67 -52.43,97.56 -45.85,98.35"/>
    </edge>
    <edge id=":n2_0" function="internal">
        <lane id=":n2_0_0" index="0" speed="30.00" length="22.78" width="6.00" shape="61.43,100.72 56.61,101.89 50.29,103.07 43.93,103.98 38.98,104.35"/>
    </edge>
    <edge id=":n2_1" function="internal">
        <lane id=":n2_1_0" index="0" speed="9.48" length="9.87" width="6.00" shape="61.43,100.72 54.64,101.75 51.79,100.82"/>
    </edge>
    <edge id=":n2_6" function="internal">
        <lane id=":n2_6_0" index="0" speed="9.48" length="14.04" width="6.00" shape="51.79,100.82 49.81,100.17 46.95,95.97 46.05,89.16"/>
    </edge>
    <edge id=":n2_2" function="internal">
        <lane id=":n2_2_0" index="0" speed="6.99" length="11.89" width="6.00" shape="52.05,89.22 52.50,92.61 53.92,94.70 56.32,95.49 59.70,94.97"/>
    </edge>
    <edge id=":n2_3" function="internal">
        <lane id=":n2_3_0" index="0" speed="10.22" length="22.70" width="6.00" shape="52.05,89.22 51.17,95.84 48.70,100.57 44.64,103.40 38.98,104.35"/>
    </edge>
    <edge id=":n2_4" function="internal">
        <lane id=":n2_4_0" index="0" speed="7.99" length="13.12" width="6.00" shape="38.98,98.35 42.04,97.78 44.23,96.05 45.57,93.18 46.05,89.16"/>
    </edge>
    <edge id=":n2_5" function="internal">
        <lane id=":n2_5_0" index="0" speed="30.00" length="21.03" width="6.00" shape="38.98,98.35 43.66,98.02 49.42,97.20 55.15,96.11 59.70,94.97"/>
    </edge>
    <edge id=":ne_0" function="internal">
        <lane id=":ne_0_0" index="0" speed="15.14" length="28.83" width="6.00" shape="144.34,63.00 141.45,69.45 137.11,74.74 131.33,78.88 124.10,81.85"/>
    </edge>
    <edge id=":ne_1" function="internal">
        <lane id=":ne_1_0" index="0" speed="9.65" length="12.39" width="6.00" shape="144.34,63.00 141.13,69.59 136.91,72.37"/>
    </edge>
    <edge id=":ne_6" function="internal">
        <lane id=":ne_6_0" index="0" speed="9.65" length="14.11" width="6.00" shape="136.91,72.37 136.71,72.49 131.08,71.70 124.24,67.20"/>
    </edge>
    <edge id=":ne_2" function="internal">
        <lane id=":ne_2_0" index="0" speed="7.19" length="13.56" width="6.00" shape="128.13,62.63 131.77,65.09 134.73,65.67 137.01,64.39 138.61,61.23"/>
    </edge>
    <edge id=":ne_3" function="internal">
        <lane id=":ne_3_0" index="0" speed="9.06" length="25.24" width="6.00" shape="128.13,62.63 132.47,68.18 133.15,73.71 130.31,78.51 124.10,81.85"/>
    </edge>
    <edge id=":ne_4" function="internal">
        <lane id=":ne_4_0" index="0" speed="6.74" length="12.74" width="6.00" shape="122.37,76.10 125.90,74.52 127.39,72.51 126.84,70.07 124.24,67.20"/>
    </edge>
    <edge id=":ne_5" function="internal">
        <lane id=":ne_5_0" index="0" speed="13.57" length="22.95" width="6.00" shape="122.37,76.10 128.20,73.72 132.85,70.45 136.32,66.29 138.61,61.23"/>
    </edge>
    <edge id=":s1_0" function="internal">
        <lane id=":s1_0_0" index="0" speed="8.39" length="18.53" width="6.00" shape="-70.82,-76.00 -71.32,-82.99 -72.78,-87.59 -75.21,-89.82 -78.60,-89.66"/>
    </edge>
    <edge id=":s1_1" function="internal">
        <lane id=":s1_1_0" index="0" speed="13.88" length="43.98" width="6.00" shape="-70.82,-76.00 -69.03,-87.22 -63.63,-95.24 -54.62,-100.05 -41.99,-101.65"/>
    </edge>
    <edge id=":s1_2" function="internal">
        <lane id=":s1_2_0" index="0" speed="9.89" length="33.15" width="6.00" shape="-64.82,-76.01 -62.57,-84.51 -56.81,-88.83 -49.06,-88.77 -40.87,-84.14"/>
    </edge>
    <edge id=":s1_3" function="internal">
        <lane id=":s1_3_0" index="0" speed="6.69" length="13.51" width="6.00" shape="-44.84,-79.64 -48.34,-82.06 -50.83,-82.27 -52.33,-80.26 -52.82,-76.03"/>
    </edge>
    <edge id=":s1_4" function="internal">
        <lane id=":s1_4_0" index="0" speed="16.24" length="36.93" width="6.00" shape="-44.84,-79.64 -53.59,-86.12 -62.13,-89.95 -70.47,-91.13 -78.60,-89.66"/>
    </edge>
    <edge id=":s1_5" function="internal">
        <lane id=":s1_5_0" index="0" speed="9.13" length="29.48" width="6.00" shape="-44.84,-79.64 -50.03,-86.52 -51.50,-93.70 -48.93,-99.36 -41.99,-101.65"/>
    </edge>
    <edge id=":s1_6" function="internal">
        <lane id=":s1_6_0" index="0" speed="7.37" length="18.09" width="6.00" shape="-41.99,-95.65 -46.39,-94.93 -47.68,-92.77 -45.84,-89.18 -40.87,-84.14"/>
    </edge>
    <edge id=":s1_7" function="internal">
        <lane id=":s1_7_0" index="0" speed="11.48" length="29.45" width="6.00" shape="-41.99,-95.65 -49.36,-94.42 -54.63,-90.74 -57.78,-84.61 -58.82,-76.02"/>
    </edge>
    <edge id=":s1_8" function="internal">
        <lane id=":s1_8_0" index="0" speed="30.00" length="37.14" width="6.00" shape="-41.99,-95.65 -49.15,-94.95 -60.40,-93.27 -71.59,-91.29 -78.60,-89.66"/>
    </edge>
    <edge id=":s1_9" function="internal">
        <lane id=":s1_9_0" index="0" speed="30.00" length="39.13" width="6.00" shape="-80.57,-95.33 -73.25,-97.01 -61.38,-99.11 -49.46,-100.89 -41.99,-101.65"/>
    </edge>
    <edge id=":s1_10" function="internal">
        <lane id=":s1_10_0" index="0" speed="17.54" length="43.28" width="6.00" shape="-80.57,-95.33 -70.82,-97.15 -60.96,-95.90 -50.97,-91.56 -40.87,-84.14"/>
    </edge>
    <edge id=":s1_11" function="internal">
        <lane id=":s1_11_0" index="0" speed="11.38" length="36.15" width="6.00" shape="-80.57,-95.33 -70.74,-96.82 -63.98,-93.72 -60.08,-86.60 -58.82,-76.02"/>
    </edge>
    <edge id=":s2_0" function="internal">
        <lane id=":s2_0_0" index="0" speed="6.75" length="12.68" width="6.00" shape="97.50,-84.82 94.89,-87.64 92.51,-88.41 90.36,-87.14 88.42,-83.83"/>
    </edge>
    <edge id=":s2_1" function="internal">
        <lane id=":s2_1_0" index="0" speed="13.77" length="22.87" width="6.00" shape="97.50,-84.82 93.43,-89.56 88.88,-92.94 83.86,-94.97 78.37,-95.65"/>
    </edge>
    <edge id=":s2_2" function="internal">
        <lane id=":s2_2_0" index="0" speed="15.33" length="28.60" width="6.00" shape="78.37,-101.65 85.33,-100.81 91.66,-98.31 97.35,-94.13 102.40,-88.29"/>
    </edge>
    <edge id=":s2_3" function="internal">
        <lane id=":s2_3_0" index="0" speed="9.65" length="12.29" width="6.00" shape="78.37,-101.65 85.57,-100.54 89.43,-97.37"/>
    </edge>
    <edge id=":s2_6" function="internal">
        <lane id=":s2_6_0" index="0" speed="9.65" length="14.02" width="6.00" shape="89.43,-97.37 89.65,-97.19 90.60,-91.62 88.42,-83.83"/>
    </edge>
    <edge id=":s2_4" function="internal">
        <lane id=":s2_4_0" index="0" speed="7.19" length="13.46" width="6.00" shape="82.89,-86.15 84.10,-90.30 83.75,-93.27 81.84,-95.06 78.37,-95.65"/>
    </edge>
    <edge id=":s2_5" function="internal">
        <lane id=":s2_5_0" index="0" speed="9.08" length="25.17" width="6.00" shape="82.89,-86.15 86.83,-91.97 91.86,-94.32 97.29,-93.12 102.40,-88.29"/>
    </edge>
    <edge id=":w_0" function="internal">
        <lane id=":w_0_0" index="0" speed="23.68" length="37.32" width="6.00" shape="-151.64,18.61 -152.52,11.46 -152.81,0.00 -152.52,-11.45 -151.64,-18.60"/>
    </edge>
    <edge id=":w_1" function="internal">
        <lane id=":w_1_0" index="0" speed="10.51" length="30.24" width="6.00" shape="-151.64,18.61 -153.56,9.80 -152.65,2.98 -148.41,-1.43 -140.33,-3.00"/>
    </edge>
    <edge id=":w_2" function="internal">
        <lane id=":w_2_0" index="0" speed="6.97" length="11.93" width="6.00" shape="-140.33,9.00 -143.74,9.48 -145.80,10.93 -146.54,13.35 -145.94,16.74"/>
    </edge>
    <edge id=":w_3" function="internal">
        <lane id=":w_3_0" index="0" speed="10.51" length="30.24" width="6.00" shape="-140.33,3.00 -148.41,1.44 -152.65,-2.97 -153.56,-9.80 -151.64,-18.60"/>
    </edge>
    <edge id=":w_4" function="internal">
        <lane id=":w_4_0" index="0" speed="6.97" length="11.93" width="6.00" shape="-145.94,-16.73 -146.54,-13.35 -145.80,-10.93 -143.73,-9.48 -140.33,-9.00"/>
    </edge>
    <edge id=":w_5" function="internal">
        <lane id=":w_5_0" index="0" speed="22.48" length="33.60" width="6.00" shape="-145.94,-16.73 -146.81,-10.17 -147.11,0.00 -146.81,10.17 -145.94,16.74"/>
    </edge>

    <edge id="c1_to_c2" from="c1" to="c2" priority="-1" length="100.00">
        <lane id="c1_to_c2_0" index="0" speed="30.00" length="100.00" width="6.00" shape="-45.69,-2.99 30.13,-3.00"/>
    </edge>
    <edge id="c1_to_n1" from="c1" to="n1" priority="-1" length="100.00">
        <lane id="c1_to_n1_0" index="0" speed="30.00" length="100.00" width="6.00" shape="-52.71,16.05 -52.83,86.32"/>
        <lane id="c1_to_n1_1" index="1" speed="30.00" length="100.00" width="6.00" shape="-58.71,16.04 -58.83,86.31"/>
    </edge>
    <edge id="c1_to_s1" from="c1" to="s1" priority="-1" length="100.00">
        <lane id="c1_to_s1_0" index="0" speed="30.00" length="100.00" width="6.00" shape="-70.71,-16.00 -70.82,-76.00"/>
        <lane id="c1_to_s1_1" index="1" speed="30.00" length="100.00" width="6.00" shape="-64.71,-16.01 -64.82,-76.01"/>
    </edge>
    <edge id="c1_to_w" from="c1" to="w" priority="-1" length="100.00">
        <lane id="c1_to_w_0" index="0" speed="30.00" length="100.00" width="6.00" shape="-77.70,9.01 -140.33,9.00"/>
        <lane id="c1_to_w_1" index="1" speed="30.00" length="100.00" width="6.00" shape="-77.70,3.01 -140.33,3.00"/>
    </edge>
    <edge id="c2_to_c1" from="c2" to="c1" priority="-1" length="100.00">
        <lane id="c2_to_c1_0" index="0" speed="30.00" length="100.00" width="6.00" shape="30.13,9.00 -45.69,9.01"/>
        <lane id="c2_to_c1_1" index="1" speed="30.00" length="100.00" width="6.00" shape="30.13,3.00 -45.69,3.01"/>
    </edge>
    <edge id="c2_to_e" from="c2" to="e" priority="-1" length="100.00">
        <lane id="c2_to_e_0" index="0" speed="30.00" length="100.00" width="6.00" shape="70.16,-3.10 145.24,-3.46"/>
    </edge>
    <edge id="c2_to_n2" from="c2" to="n2" priority="-1" length="100.00">
        <lane id="c2_to_n2_0" index="0" speed="30.00" length="100.00" width="6.00" shape="52.82,16.85 52.05,89.22"/>
    </edge>
    <edge id="c2_to_ne" from="c2" to="ne" priority="-1">
        <lane id="c2_to_ne_0" index="0" speed="13.89" length="79.92" width="6.00" shape="67.30,10.80 128.13,62.63"/>
    </edge>
    <edge id="c2_to_s1" from="c2" to="s1" priority="-1">
        <lane id="c2_to_s1_0" index="0" speed="13.89" length="103.94" width="6.00" shape="33.11,-10.89 -44.84,-79.64"/>
    </edge>
    <edge id="c2_to_s2" from="c2" to="s2" priority="-1" length="100.00">
        <lane id="c2_to_s2_0" index="0" speed="30.00" length="100.00" width="6.00" shape="52.29,-13.21 82.89,-86.15"/>
    </edge>
    <edge id="e_to_c2" from="e" to="c2" priority="-1" length="100.00">
        <lane id="e_to_c2_0" index="0" speed="30.00" length="100.00" width="6.00" shape="145.27,2.54 70.19,2.90"/>
    </edge>
    <edge id="e_to_ne" from="e" to="ne" priority="-1" length="78.29">
        <lane id="e_to_ne_0" index="0" speed="30.00" length="78.29" width="6.00" shape="160.06,11.97 144.34,63.00"/>
    </edge>
    <edge id="e_to_s2" from="e" to="s2" priority="-1" length="160.00">
        <lane id="e_to_s2_0" index="0" speed="30.00" length="160.00" width="6.00" shape="149.37,-11.48 97.50,-84.82"/>
    </edge>
    <edge id="n1_to_c1" from="n1" to="c1" priority="-1" length="100.00">
        <lane id="n1_to_c1_0" index="0" speed="30.00" length="100.00" width="6.00" shape="-70.83,86.29 -70.71,16.01"/>
        <lane id="n1_to_c1_1" index="1" speed="30.00" length="100.00" width="6.00" shape="-64.83,86.30 -64.71,16.02"/>
    </edge>
    <edge id="n1_to_n2" from="n1" to="n2" priority="-1">
        <lane id="n1_to_n2_0" index="0" speed="30.00" length="84.83" width="6.00" shape="-45.85,98.35 38.98,98.35"/>
    </edge>
    <edge id="n1_to_w" from="n1" to="w" priority="-1" length="165.00" shape="-61.86,101.35 -130.00,75.00 -154.58,0.00">
        <lane id="n1_to_w_0" index="0" speed="30.00" length="165.00" width="6.00" shape="-80.82,97.24 -132.41,77.29 -151.64,18.61"/>
    </edge>
    <edge id="n2_to_c2" from="n2" to="c2" priority="-1" length="100.00">
        <lane id="n2_to_c2_0" index="0" speed="30.00" length="100.00" width="6.00" shape="46.05,89.16 46.82,16.78"/>
    </edge>
    <edge id="n2_to_n1" from="n2" to="n1" priority="-1">
        <lane id="n2_to_n1_0" index="0" speed="30.00" length="84.83" width="6.00" shape="38.98,104.35 -45.85,104.35"/>
    </edge>
    <edge id="n2_to_ne" from="n2" to="ne" priority="-1" length="84.08">
        <lane id="n2_to_ne_0" index="0" speed="30.00" length="84.08" width="6.00" shape="59.70,94.97 122.37,76.10"/>
    </edge>
    <edge id="ne_to_c2" from="ne" to="c2" priority="-1">
        <lane id="ne_to_c2_0" index="0" speed="13.89" length="79.92" width="6.00" shape="124.24,67.20 63.41,15.37"/>
    </edge>
    <edge id="ne_to_e" from="ne" to="e" priority="-1" length="75.92">
        <lane id="ne_to_e_0" index="0" speed="30.00" length="75.92" width="6.00" shape="138.61,61.23 154.33,10.21"/>
    </edge>
    <edge id="ne_to_n2" from="ne" to="n2" priority="-1" length="86.71">
        <lane id="ne_to_n2_0" index="0" speed="30.00" length="86.71" width="6.00" shape="124.10,81.85 61.43,100.72"/>
    </edge>
    <edge id="s1_to_c1" from="s1" to="c1" priority="-1" length="100.00">
        <lane id="s1_to_c1_0" index="0" speed="30.00" length="100.00" width="6.00" shape="-52.82,-76.03 -52.71,-16.03"/>
        <lane id="s1_to_c1_1" index="1" speed="30.00" length="100.00" width="6.00" shape="-58.82,-76.02 -58.71,-16.02"/>
    </edge>
    <edge id="s1_to_c2" from="s1" to="c2" priority="-1">
        <lane id="s1_to_c2_0" index="0" speed="13.89" length="103.94" width="6.00" shape="-40.87,-84.14 37.08,-15.39"/>
    </edge>
    <edge id="s1_to_s2" from="s1" to="s2" priority="-1">
        <lane id="s1_to_s2_0" index="0" speed="30.00" length="120.35" width="6.00" shape="-41.99,-101.65 78.37,-101.65"/>
    </edge>