<?xml version="1.0" encoding="UTF-8"?>
<!-- ============================================================================
 * Research Project: Data communication in the environment of
intelligent cars
 * Author: Kirill Komarov
 * Date: 2026
 * 
 * Description:
 * This file contains source code developed (or modified) as part of the 
 * research for the paper: "Data communication in the environment of
intelligent cars".
 * 
 * DISCLAIMER & ACKNOWLEDGEMENT:
 * Please note that this file contains or may contain code fragments, 
 * algorithms, or architectural solutions that were previously implemented 
 * in the "VaN3Twin" project https://github.com/DriveX-devs/VaN3Twin.git.
 * 
 * The borrowed code has been adapted and is used strictly for academic 
 * and research purposes. All rights to the original code segments belong 
 * to their respective original authors.
 * ============================================================================ -->



<net version="1.16" junctionCornerDetail="5" limitTurnSpeed="5.50" xmlns:xsi="http://www.w3.org/2001/XMLSchema-instance" xsi:noNamespaceSchemaLocation="http://sumo.dlr.de/xsd/net_file.xsd">

    <location netOffset="-394175.96,-4989734.74" convBoundary="-150.00,-100.00,150.00,99.73" origBoundary="7.655664,45.053168,7.678963,45.076295" projParameter="+proj=utm +zone=32 +ellps=WGS84 +datum=WGS84 +units=m +no_defs"/>

    <edge id=":c_0" function="internal">
        <lane id=":c_0_0" index="0" speed="8.50" length="14.81" width="6.00" shape="-2.40,12.51 -3.15,9.38 -5.24,7.12 -8.68,5.73 -13.46,5.21"/>
    </edge>
    <edge id=":c_1" function="internal">
        <lane id=":c_1_0" index="0" speed="27.81" length="24.50" width="6.00" shape="-2.40,12.51 -3.24,7.38 -5.15,0.63 -7.46,-6.02 -9.48,-10.86"/>
    </edge>
    <edge id=":c_2" function="internal">
        <lane id=":c_2_0" index="0" speed="26.89" length="27.11" width="6.00" shape="-2.40,12.51 -1.63,6.96 0.34,-0.70 2.74,-8.28 4.80,-13.54"/>
    </edge>
    <edge id=":c_3" function="internal">
        <lane id=":c_3_0" index="0" speed="10.18" length="4.66" width="6.00" shape="-2.40,12.51 -0.99,8.06"/>
    </edge>
    <edge id=":c_20" function="internal">
        <lane id=":c_20_0" index="0" speed="10.18" length="18.11" width="6.00" shape="-0.99,8.06 -0.87,7.70 3.15,3.46 8.52,0.42 14.10,-0.79"/>
    </edge>
    <edge id=":c_4" function="internal">
        <lane id=":c_4_0" index="0" speed="8.29" length="14.42" width="6.00" shape="14.19,5.21 9.51,5.72 6.18,7.09 4.21,9.31 3.59,12.39"/>
    </edge>
    <edge id=":c_5" function="internal">
        <lane id=":c_5_0" index="0" speed="30.00" length="27.66" width="6.00" shape="14.19,5.21 -13.46,5.21"/>
    </edge>
    <edge id=":c_6" function="internal">
        <lane id=":c_6_0" index="0" speed="14.15" length="10.14" width="6.00" shape="14.19,5.21 6.85,4.30 4.37,3.14"/>
    </edge>
    <edge id=":c_7" function="internal">
        <lane id=":c_7_0" index="0" speed="9.51" length="8.05" width="6.00" shape="14.19,5.21 7.10,3.83 6.53,3.24"/>
    </edge>
    <edge id=":c_21" function="internal">
        <lane id=":c_21_0" index="0" speed="14.15" length="20.18" width="6.00" shape="4.37,3.14 0.45,1.32 -4.99,-3.74 -9.48,-10.86"/>
    </edge>
    <edge id=":c_22" function="internal">
        <lane id=":c_22_0" index="0" speed="9.51" length="18.52" width="6.00" shape="6.53,3.24 3.23,-0.16 2.49,-6.16 4.80,-13.54"/>
    </edge>
    <edge id=":c_8" function="internal">
        <lane id=":c_8_0" index="0" speed="7.23" length="14.21" width="6.00" shape="10.20,-10.93 8.58,-6.44 8.69,-3.25 10.53,-1.37 14.10,-0.79"/>
    </edge>
    <edge id=":c_9" function="internal">
        <lane id=":c_9_0" index="0" speed="25.49" length="24.32" width="6.00" shape="10.20,-10.93 8.24,-6.09 6.04,0.54 4.28,7.27 3.59,12.39"/>
    </edge>
    <edge id=":c_10" function="internal">
        <lane id=":c_10_0" index="0" speed="14.12" length="30.36" width="6.00" shape="10.20,-10.93 5.75,-3.77 0.32,1.30 -6.09,4.29 -13.46,5.21"/>
    </edge>
    <edge id=":c_11" function="internal">
        <lane id=":c_11_0" index="0" speed="8.93" length="25.61" width="6.00" shape="10.20,-10.93 5.79,-5.38 0.38,-3.52 -5.04,-5.35 -9.48,-10.86"/>
    </edge>
    <edge id=":c_12" function="internal">
        <lane id=":c_12_0" index="0" speed="6.71" length="13.16" width="6.00" shape="-4.10,-13.51 -1.86,-10.10 0.36,-8.97 2.59,-10.11 4.80,-13.54"/>
    </edge>
    <edge id=":c_13" function="internal">
        <lane id=":c_13_0" index="0" speed="12.54" length="23.51" width="6.00" shape="-4.10,-13.51 -0.58,-7.88 3.63,-3.88 8.52,-1.52 14.10,-0.79"/>
    </edge>
    <edge id=":c_14" function="internal">
        <lane id=":c_14_0" index="0" speed="29.24" length="27.09" width="6.00" shape="-4.10,-13.51 -1.98,-8.28 0.54,-0.75 2.66,6.86 3.59,12.39"/>
    </edge>
    <edge id=":c_15" function="internal">
        <lane id=":c_15_0" index="0" speed="9.49" length="11.00" width="6.00" shape="-4.10,-13.51 -1.76,-6.16 -2.16,-2.90"/>
    </edge>
    <edge id=":c_23" function="internal">
        <lane id=":c_23_0" index="0" speed="9.49" length="15.54" width="6.00" shape="-2.16,-2.90 -2.50,-0.17 -6.37,3.83 -13.46,5.21"/>
    </edge>
    <edge id=":c_16" function="internal">
        <lane id=":c_16_0" index="0" speed="7.21" length="14.17" width="6.00" shape="-13.36,-0.79 -9.78,-1.37 -7.94,-3.24 -7.84,-6.40 -9.48,-10.86"/>
    </edge>
    <edge id=":c_17" function="internal">
        <lane id=":c_17_0" index="0" speed="12.50" length="23.51" width="6.00" shape="-13.36,-0.79 -7.77,-1.52 -2.87,-3.88 1.32,-7.89 4.80,-13.54"/>
    </edge>
    <edge id=":c_18" function="internal">
        <lane id=":c_18_0" index="0" speed="30.00" length="27.46" width="6.00" shape="-13.36,-0.79 14.10,-0.79"/>
    </edge>
    <edge id=":c_19" function="internal">
        <lane id=":c_19_0" index="0" speed="10.37" length="9.50" width="6.00" shape="-13.36,-0.79 -7.71,0.41 -4.45,2.21"/>
    </edge>
    <edge id=":c_24" function="internal">
        <lane id=":c_24_0" index="0" speed="10.37" length="13.48" width="6.00" shape="-4.45,2.21 -2.25,3.42 1.90,7.62 3.59,12.39"/>
    </edge>
    <edge id=":e_0" function="internal">
        <lane id=":e_0_0" index="0" speed="22.96" length="24.48" width="6.00" shape="149.89,-12.06 150.60,-6.89 150.82,0.13 150.56,7.15 149.82,12.31"/>
    </edge>
    <edge id=":e_1" function="internal">
        <lane id=":e_1_0" index="0" speed="9.56" length="11.21" width="6.00" shape="149.89,-12.06 150.65,-5.48 149.10,-1.17"/>
    </edge>
    <edge id=":e_6" function="internal">
        <lane id=":e_6_0" index="0" speed="9.56" length="12.27" width="6.00" shape="149.10,-1.17 148.94,-0.75 144.76,2.14 138.11,3.19"/>
    </edge>
    <edge id=":e_2" function="internal">
        <lane id=":e_2_0" index="0" speed="7.11" length="11.96" width="6.00" shape="138.01,-2.81 141.43,-3.34 143.58,-4.80 144.47,-7.19 144.09,-10.51"/>
    </edge>
    <edge id=":e_3" function="internal">
        <lane id=":e_3_0" index="0" speed="9.50" length="23.62" width="6.00" shape="138.01,-2.81 144.72,-1.96 148.92,0.84 150.62,5.60 149.82,12.31"/>
    </edge>
    <edge id=":e_4" function="internal">
        <lane id=":e_4_0" index="0" speed="7.02" length="11.83" width="6.00" shape="144.02,10.77 144.42,7.40 143.57,5.02 141.47,3.62 138.11,3.19"/>
    </edge>
    <edge id=":e_5" function="internal">
        <lane id=":e_5_0" index="0" speed="21.49" length="21.40" width="6.00" shape="144.02,10.77 144.76,6.08 145.02,0.13 144.81,-5.83 144.09,-10.51"/>
    </edge>
    <edge id=":n_0" function="internal">
        <lane id=":n_0_0" index="0" speed="30.00" length="23.29" width="6.00" shape="13.79,100.56 8.78,101.09 2.18,101.28 -4.43,101.11 -9.44,100.59"/>
    </edge>
    <edge id=":n_1" function="internal">
        <lane id=":n_1_0" index="0" speed="9.63" length="10.27" width="6.00" shape="13.79,100.56 7.46,100.85 3.84,99.32"/>
    </edge>
    <edge id=":n_6" function="internal">
        <lane id=":n_6_0" index="0" speed="9.63" length="12.46" width="6.00" shape="3.84,99.32 2.89,98.92 0.10,94.78 -0.93,88.42"/>
    </edge>
    <edge id=":n_2" function="internal">
        <lane id=":n_2_0" index="0" speed="7.21" length="11.79" width="6.00" shape="5.07,88.30 5.60,91.63 7.04,93.80 9.39,94.81 12.65,94.67"/>
    </edge>
    <edge id=":n_3" function="internal">
        <lane id=":n_3_0" index="0" speed="9.56" length="22.87" width="6.00" shape="5.07,88.30 4.27,94.72 1.59,98.90 -2.98,100.86 -9.44,100.59"/>
    </edge>
    <edge id=":n_4" function="internal">
        <lane id=":n_4_0" index="0" speed="7.12" length="11.67" width="6.00" shape="-8.34,94.69 -5.04,94.83 -2.71,93.83 -1.34,91.69 -0.93,88.42"/>
    </edge>
    <edge id=":n_5" function="internal">
        <lane id=":n_5_0" index="0" speed="30.00" length="21.05" width="6.00" shape="-8.34,94.69 -3.67,95.21 2.16,95.38 7.99,95.20 12.65,94.67"/>
    </edge>
    <edge id=":s1_0" function="internal">
        <lane id=":s1_0_0" index="0" speed="8.92" length="14.96" width="6.00" shape="-46.67,-86.44 -49.20,-90.66 -51.90,-93.40 -54.78,-94.65 -57.83,-94.41"/>
    </edge>
    <edge id=":s1_1" function="internal">
        <lane id=":s1_1_0" index="0" speed="9.41" length="25.79" width="6.00" shape="-46.67,-86.44 -49.08,-93.68 -48.17,-98.86 -43.93,-101.96 -36.36,-103.00"/>
    </edge>
    <edge id=":s1_2" function="internal">
        <lane id=":s1_2_0" index="0" speed="6.83" length="12.32" width="6.00" shape="-36.36,-97.00 -39.98,-96.51 -42.00,-95.02 -42.44,-92.55 -41.29,-89.09"/>
    </edge>
    <edge id=":s1_3" function="internal">
        <lane id=":s1_3_0" index="0" speed="30.00" length="21.66" width="6.00" shape="-36.36,-97.00 -41.15,-96.81 -47.18,-96.26 -53.16,-95.44 -57.83,-94.41"/>
    </edge>
    <edge id=":s1_4" function="internal">
        <lane id=":s1_4_0" index="0" speed="30.00" length="23.47" width="6.00" shape="-59.62,-100.14 -54.67,-101.21 -48.07,-102.13 -41.43,-102.76 -36.36,-103.00"/>
    </edge>
    <edge id=":s1_5" function="internal">
        <lane id=":s1_5_0" index="0" speed="10.97" length="8.57" width="6.00" shape="-59.62,-100.14 -54.28,-100.76 -51.25,-99.73"/>
    </edge>
    <edge id=":s1_6" function="internal">
        <lane id=":s1_6_0" index="0" speed="10.97" length="14.96" width="6.00" shape="-51.25,-99.73 -49.45,-99.12 -45.12,-95.23 -41.29,-89.09"/>
    </edge>
    <edge id=":s2_0" function="internal">
        <lane id=":s2_0_0" index="0" speed="8.87" length="14.88" width="6.00" shape="57.86,-94.40 54.81,-94.64 51.95,-93.40 49.27,-90.68 46.79,-86.48"/>
    </edge>
    <edge id=":s2_1" function="internal">
        <lane id=":s2_1_0" index="0" speed="30.00" length="21.63" width="6.00" shape="57.86,-94.40 53.20,-95.44 47.23,-96.26 41.22,-96.80 36.43,-97.00"/>
    </edge>
    <edge id=":s2_2" function="internal">
        <lane id=":s2_2_0" index="0" speed="30.00" length="23.44" width="6.00" shape="36.43,-103.00 41.49,-102.76 48.12,-102.12 54.71,-101.21 59.65,-100.13"/>
    </edge>
    <edge id=":s2_3" function="internal">
        <lane id=":s2_3_0" index="0" speed="9.41" length="10.29" width="6.00" shape="36.43,-103.00 43.96,-101.97 46.13,-100.38"/>
    </edge>
    <edge id=":s2_6" function="internal">
        <lane id=":s2_6_0" index="0" speed="9.41" length="15.41" width="6.00" shape="46.13,-100.38 48.20,-98.87 49.14,-93.71 46.79,-86.48"/>
    </edge>
    <edge id=":s2_4" function="internal">
        <lane id=":s2_4_0" index="0" speed="6.83" length="12.30" width="6.00" shape="41.38,-89.09 42.51,-92.55 42.06,-95.02 40.03,-96.51 36.43,-97.00"/>
    </edge>
    <edge id=":s2_5" function="internal">
        <lane id=":s2_5_0" index="0" speed="10.93" length="23.50" width="6.00" shape="41.38,-89.09 45.17,-95.24 49.47,-99.12 54.30,-100.75 59.65,-100.13"/>
    </edge>
    <edge id=":w_0" function="internal">
        <lane id=":w_0_0" index="0" speed="22.96" length="24.48" width="6.00" shape="-149.82,12.31 -150.56,7.14 -150.82,0.13 -150.60,-6.89 -149.89,-12.06"/>
    </edge>
    <edge id=":w_1" function="internal">
        <lane id=":w_1_0" index="0" speed="9.50" length="11.33" width="6.00" shape="-149.82,12.31 -150.62,5.60 -149.08,1.30"/>
    </edge>
    <edge id=":w_6" function="internal">
        <lane id=":w_6_0" index="0" speed="9.50" length="12.29" width="6.00" shape="-149.08,1.30 -148.92,0.84 -144.72,-1.96 -138.01,-2.81"/>
    </edge>
    <edge id=":w_2" function="internal">
        <lane id=":w_2_0" index="0" speed="7.02" length="11.83" width="6.00" shape="-138.11,3.19 -141.47,3.62 -143.57,5.02 -144.42,7.40 -144.02,10.77"/>
    </edge>
    <edge id=":w_3" function="internal">
        <lane id=":w_3_0" index="0" speed="9.56" length="23.47" width="6.00" shape="-138.11,3.19 -144.76,2.14 -148.94,-0.75 -150.65,-5.48 -149.89,-12.06"/>
    </edge>
    <edge id=":w_4" function="internal">
        <lane id=":w_4_0" index="0" speed="7.11" length="11.96" width="6.00" shape="-144.09,-10.51 -144.47,-7.19 -143.58,-4.80 -141.43,-3.34 -138.01,-2.81"/>
    </edge>
    <edge id=":w_5" function="internal">
        <lane id=":w_5_0" index="0" speed="21.49" length="21.40" width="6.00" shape="-144.09,-10.51 -144.81,-5.83 -145.02,0.13 -144.76,6.08 -144.02,10.77"/>
    </edge>

    <edge id="c_to_e" from="c" to="e" priority="-1" length="100.00">
        <lane id="c_to_e_0" index="0" speed="30.00" length="100.00" width="6.00" shape="14.10,-0.79 138.01,-2.81"/>
    </edge>
    <edge id="c_to_n" from="c" to="n" priority="-1" length="100.00">
        <lane id="c_to_n_0" index="0" speed="30.00" length="100.00" width="6.00" shape="3.59,12.39 5.07,88.30"/>
    </edge>
    <edge id="c_to_s1" from="c" to="s1" priority="-1" length="100.00">
        <lane id="c_to_s1_0" index="0" speed="30.00" length="100.00" width="6.00" shape="-9.48,-10.86 -46.67,-86.44"/>
    </edge>
    <edge id="c_to_s2" from="c" to="s2" priority="-1" length="100.00">
        <lane id="c_to_s2_0" index="0" speed="30.00" length="100.00" width="6.00" shape="4.80,-13.54 41.38,-89.09"/>
    </edge>
    <edge id="c_to_w" from="c" to="w" priority="-1" length="100.00">
        <lane id="c_to_w_0" index="0" speed="30.00" length="100.00" width="6.00" shape="-13.46,5.21 -138.11,3.19"/>
    </edge>
    <edge id="e_to_c" from="e" to="c" priority="-1" length="100.00">
        <lane id="e_to_c_0" index="0" speed="30.00" length="100.00" width="6.00" shape="138.11,3.19 14.19,5.21"/>
    </edge>
    <edge id="e_to_n" from="e" to="n" priority="-1" length="165.00" shape="150.00,0.00 130.00,75.00 2.29,99.73">
        <lane id="e_to_n_0" index="0" speed="30.00" length="165.00" width="6.00" shape="149.82,12.31 132.41,77.59 13.79,100.56"/>
    </edge>
    <edge id="e_to_s2" from="e" to="s2" priority="-1" length="160.00" shape="150.00,0.00 130.00,-75.00 50.00,-100.00">
        <lane id="e_to_s2_0" index="0" speed="30.00" length="160.00" width="6.00" shape="144.09,-10.51 127.53,-72.63 57.86,-94.40"/>
    </edge>
    <edge id="n_to_c" from="n" to="c" priority="-1" length="100.00">
        <lane id="n_to_c_0" index="0" speed="30.00" length="100.00" width="6.00" shape="-0.93,88.42 -2.40,12.51"/>
    </edge>
    <edge id="n_to_e" from="n" to="e" priority="-1" length="160.00" shape="2.29,99.73 130.00,75.00 150.00,0.00">
        <lane id="n_to_e_0" index="0" speed="30.00" length="160.00" width="6.00" shape="12.65,94.67 127.59,72.41 144.02,10.77"/>
    </edge>
    <edge id="n_to_w" from="n" to="w" priority="-1" length="165.00" shape="2.29,99.73 -130.00,75.00 -150.00,0.00">
        <lane id="n_to_w_0" index="0" speed="30.00" length="165.00" width="6.00" shape="-9.44,100.59 -132.41,77.60 -149.82,12.31"/>
    </edge>
    <edge id="s1_to_c" from="s1" to="c" priority="-1" length="100.00">
        <lane id="s1_to_c_0" index="0" speed="30.00" length="100.00" width="6.00" shape="-41.29,-89.09 -4.10,-13.51"/>
    </edge>
    <edge id="s1_to_s2" from="s1" to="s2" priority="-1">
        <lane id="s1_to_s2_0" index="0" speed="30.00" length="72.79" width="6.00" shape="-36.36,-103.00 36.43,-103.00"/>
    </edge>
    <edge id="s1_to_w" from="s1" to="w" priority="-1" length="160.00" shape="-50.00,-100.00 -130.00,-75.00 -150.00,0.00">
        <lane id="s1_to_w_0" index="0" speed="30.00" length="160.00" width="6.00" shape="-57.83,-94.41 -127.53,-72.63 -144.09,-10.51"/>
    </edge>
    <edge id="s2_to_c" from="s2" to="c" priority="-1" length="100.00">
        <lane id="s2_to_c_0" index="0" speed="30.00" length="100.00" width="6.00" shape="46.79,-86.48 10.20,-10.93"/>
    </edge>
    <edge id="s2_to_e" from="s2" to="e" priority="-1" length="165.00" shape="50.00,-100.00 130.00,-75.00 150.00,0.00">
        <lane id="s2_to_e_0" index="0" speed="30.00" length="165.00" width="6.00" shape="59.65,-100.13 132.47,-77.37 149.89,-12.06"/>
    </edge>
    <edge id="s2_to_s1" from="s2" to="s1" priority="-1">
        <lane id="s2_to_s1_0" index="0" speed="30.00" length="72.79" width="6.00" shape="36.43,-97.00 -36.36,-97.00"/>
    </edge>
    <edge id="w_to_c" from="w" to="c" priority="-1" length="100.00">
        <lane id="w_to_c_0" index="0" speed="30.00" length="100.00" width="6.00" shape="-138.01,-2.81 -13.36,-0.79"/>
    </edge>
    <edge id="w_to_n" from="w" to="n" priority="-1" length="160.00" shape="-150.00,0.00 -130.00,75.00 2.29,99.73">
        <lane id="w_to_n_0" index="0" speed="30.00" length="160.00" width="6.00" shape="-144.02,10.77 -127.59,72.40 -8.34,94.69"/>
    </edge>
    <edge id="w_to_s1" from="w" to="s1" priority="-1" length="165.00" shape="-150.00,0.00 -130.00,-75.00 -50.00,-100.00">
        <lane id="w_to_s1_0" index="0" speed="30.00" length="165.00" width="6.00" shape="-149.89,-12.06 -132.47,-77.37 -59.62,-100.14"/>
    </edge>

    <tlLogic id="c" type="static" programID="0" offset="0">
        <phase duration="20" state="rrrrGGggrrrrrrrrGGGg"/>
        <phase duration="3"  state="rrrryyyyrrrrrrrryyyy"/>
        <phase duration="20" state="GGggrrrrrrrrggGgrrrr"/>
        <phase duration="3"  state="yyyyrrrrrrrryyyyrrrr"/>
        <phase duration="20" state="rrrrrrrrGGGGGrrrrrrr"/>
        <phase duration="3"  state="rrrrrrrryyyyyrrrrrrr"/>
    </tlLogic>
    <tlLogic id="e" type="static" programID="0" offset="0">
        <phase duration="20" state="GgrrGG"/>
        <phase duration="3"  state="yyrryy"/>
        <phase duration="20" state="rrGGGr"/>
        <phase duration="3"  state="rryyyr"/>
    </tlLogic>
    <tlLogic id="w" type="static" programID="0" offset="0">
        <phase duration="20" state="GgrrGG"/>
        <phase duration="3"  state="yyrryy"/>
        <phase duration="20" state="rrGGGr"/>
        <phase duration="3"  state="rryyyr"/>
    </tlLogic>

    <junction id="c" type="traffic_light" x="0.40" y="2.43" incLanes="n_to_c_0 e_to_c_0 s2_to_c_0 s1_to_c_0 w_to_c_0" intLanes=":c_0_0 :c_1_0 :c_2_0 :c_20_0 :c_4_0 :c_5_0 :c_21_0 :c_22_0 :c_8_0 :c_9_0 :c_10_0 :c_11_0 :c_12_0 :c_13_0 :c_14_0 :c_23_0 :c_16_0 :c_17_0 :c_18_0 :c_24_0" shape="-5.40,12.56 6.59,12.33 7.41,10.09 8.47,9.30 9.96,8.72 11.88,8.36 14.24,8.21 14.05,-3.79 12.14,-4.41 11.76,-5.22 11.76,-6.35 12.14,-7.82 12.90,-9.62 2.10,-14.85 0.94,-13.25 0.35,-13.05 -0.23,-13.24 -0.82,-13.84 -1.41,-14.84 -12.18,-9.54 -11.03,-6.32 -11.03,-5.20 -11.41,-4.40 -12.17,-3.93 -13.32,-3.79 -13.51,8.21 -11.06,8.36 -9.04,8.75 -7.47,9.36 -6.34,10.20 -5.65,11.27">
        <request index="0"  response="00000000000000100000" foes="00001000010000100000" cont="0"/>
        <request index="1"  response="11110000000001100000" foes="11111000110001100000" cont="0"/>
        <request index="2"  response="11100100000011100000" foes="11100111110011100000" cont="0"/>
        <request index="3"  response="11000110011111100000" foes="11000110011111100000" cont="1"/>
        <request index="4"  response="00000000000000000000" foes="10000100001000000000" cont="0"/>
        <request index="5"  response="00001000000000001000" foes="10001100011000001111" cont="0"/>
        <request index="6"  response="11111000000000001000" foes="11111100111000001110" cont="1"/>
        <request index="7"  response="01100000000000001000" foes="01100011111000001100" cont="1"/>
        <request index="8"  response="01000000000000001000" foes="01000010000000001000" cont="0"/>
        <request index="9"  response="11000000000011111000" foes="11000110000011111000" cont="0"/>
        <request index="10" response="11001100000011100111" foes="11001110000011101111" cont="0"/>
        <request index="11" response="00111100000011000110" foes="00111110000011000110" cont="0"/>
        <request index="12" response="00100000000010000100" foes="00100000000010000100" cont="0"/>
        <request index="13" response="01100000111110000100" foes="01100000111110001100" cont="0"/>
        <request index="14" response="11100000001001110000" foes="11100000111001111100" cont="0"/>
        <request index="15" response="11100000110001100011" foes="11100000110001100011" cont="1"/>
        <request index="16" response="00000000000000000000" foes="00000000100001000010" cont="0"/>
        <request index="17" response="00001000000000000000" foes="00001111100011000110" cont="0"/>
        <request index="18" response="00001000000000001000" foes="00001110011111001110" cont="0"/>
        <request index="19" response="00001000000000111000" foes="00001100011001111110" cont="1"/>
    </junction>
    <junction id="e" type="traffic_light" x="150.00" y="0.00" incLanes="s2_to_e_0 c_to_e_0 n_to_e_0" intLanes=":e_0_0 :e_6_0 :e_2_0 :e_3_0 :e_4_0 :e_5_0" shape="152.79,-12.83 141.19,-9.74 141.29,-7.58 140.90,-6.82 140.22,-6.27 139.24,-5.93 137.96,-5.81 138.16,6.19 140.26,6.59 140.90,7.11 141.25,7.85 141.33,8.81 141.13,9.99 152.72,13.09 154.12,7.69 154.96,3.58 155.26,0.13 155.00,-3.33 154.17,-7.43">
        <request index="0" response="000000" foes="001000" cont="0"/>
        <request index="1" response="110000" foes="111000" cont="1"/>
        <request index="2" response="100000" foes="100000" cont="0"/>
        <request index="3" response="100011" foes="100011" cont="0"/>
        <request index="4" response="000000" foes="000010" cont="0"/>
        <request index="5" response="000000" foes="001110" cont="0"/>
    </junction>
    <junction id="n" type="priority" x="2.29" y="99.73" incLanes="e_to_n_0 c_to_n_0 w_to_n_0" intLanes=":n_0_0 :n_6_0 :n_2_0 :n_3_0 :n_4_0 :n_5_0" shape="14.36,103.50 12.08,91.72 9.89,91.67 9.11,91.23 8.55,90.52 8.20,89.52 8.07,88.25 -3.93,88.48 -4.32,90.62 -4.85,91.29 -5.61,91.71 -6.58,91.86 -7.78,91.74 -9.99,103.54 -4.86,104.47 -1.01,105.04 2.19,105.23 5.39,105.04 9.24,104.47">
        <request index="0" response="000000" foes="001000" cont="0"/>
        <request index="1" response="110000" foes="111000" cont="1"/>
        <request index="2" response="100000" foes="100000" cont="0"/>
        <request index="3" response="100011" foes="100011" cont="0"/>
        <request index="4" response="000000" foes="000010" cont="0"/>
        <request index="5" response="000000" foes="001110" cont="0"/>
    </junction>
    <junction id="s1" type="priority" x="-50.00" y="-100.00" incLanes="c_to_s1_0 s2_to_s1_0 w_to_s1_0" intLanes=":s1_0_0 :s1_1_0 :s1_2_0 :s1_3_0 :s1_4_0 :s1_6_0" shape="-49.36,-85.11 -38.59,-90.41 -39.13,-92.40 -38.92,-93.10 -38.39,-93.60 -37.53,-93.90 -36.36,-94.00 -36.36,-106.00 -41.57,-106.03 -45.45,-106.03 -48.64,-105.86 -51.79,-105.39 -55.54,-104.48 -60.51,-103.00 -56.93,-91.55 -54.39,-91.36 -53.13,-90.54 -51.87,-89.22 -50.61,-87.41">
        <request index="0" response="001000" foes="001000" cont="0"/>
        <request index="1" response="111000" foes="111000" cont="0"/>
        <request index="2" response="000000" foes="100000" cont="0"/>
        <request index="3" response="000000" foes="100011" cont="0"/>
        <request index="4" response="000000" foes="000010" cont="0"/>
        <request index="5" response="001100" foes="001110" cont="1"/>
    </junction>
    <junction id="s2" type="priority" x="50.00" y="-100.00" incLanes="e_to_s2_0 s1_to_s2_0 c_to_s2_0" intLanes=":s2_0_0 :s2_1_0 :s2_2_0 :s2_6_0 :s2_4_0 :s2_5_0" shape="56.96,-91.54 60.54,-102.99 55.57,-104.47 51.84,-105.38 48.69,-105.85 45.50,-106.03 41.63,-106.03 36.43,-106.00 36.43,-94.00 38.46,-93.60 38.99,-93.10 39.21,-92.40 39.11,-91.50 38.68,-90.40 49.49,-85.17 50.71,-87.45 51.94,-89.24 53.19,-90.54 54.44,-91.36 55.70,-91.69">
        <request index="0" response="000000" foes="001000" cont="0"/>
        <request index="1" response="000000" foes="111000" cont="0"/>
        <request index="2" response="000000" foes="100000" cont="0"/>
        <request index="3" response="000011" foes="100011" cont="1"/>
        <request index="4" response="000010" foes="000010" cont="0"/>
        <request index="5" response="001110" foes="001110" cont="0"/>
    </junction>
    <junction id="w" type="traffic_light" x="-150.00" y="0.00" incLanes="n_to_w_0 c_to_w_0 s1_to_w_0" intLanes=":w_0_0 :w_6_0 :w_2_0 :w_3_0 :w_4_0 :w_5_0" shape="-152.72,13.08 -141.13,9.99 -141.25,7.85 -140.90,7.11 -140.26,6.59 -139.35,6.28 -138.16,6.19 -137.96,-5.81 -140.22,-6.27 -140.90,-6.82 -141.29,-7.59 -141.39,-8.56 -141.19,-9.74 -152.79,-12.83 -154.17,-7.43 -155.00,-3.33 -155.26,0.13 -154.96,3.58 -154.12,7.69">
        <request index="0" response="000000" foes="001000" cont="0"/>
        <request index="1" response="110000" foes="111000" cont="1"/>
        <request index="2" response="100000" foes="100000" cont="0"/>
        <request index="3" response="100011" foes="100011" cont="0"/>
        <request index="4" response="000000" foes="000010" cont="0"/>
        <request index="5" response="000000" foes="001110" cont="0"/>
    </junction>

    <junction id=":c_20_0" type="internal" x="-0.99" y="8.06" incLanes=":c_3_0 s1_to_c_0" intLanes=":c_5_0 :c_6_0 :c_7_0 :c_8_0 :c_9_0 :c_13_0 :c_14_0 :c_18_0 :c_19_0"/>
    <junction id=":c_21_0" type="internal" x="4.37" y="3.14" incLanes=":c_6_0 w_to_c_0" intLanes=":c_1_0 :c_2_0 :c_3_0 :c_9_0 :c_10_0 :c_11_0 :c_14_0 :c_15_0 :c_16_0 :c_17_0 :c_18_0"/>
    <junction id=":c_22_0" type="internal" x="6.53" y="3.24" incLanes=":c_7_0 w_to_c_0" intLanes=":c_2_0 :c_3_0 :c_9_0 :c_10_0 :c_11_0 :c_12_0 :c_13_0 :c_17_0 :c_18_0"/>
    <junction id=":c_23_0" type="internal" x="-2.16" y="-2.90" incLanes=":c_15_0 n_to_c_0" intLanes=":c_0_0 :c_1_0 :c_5_0 :c_6_0 :c_10_0 :c_11_0 :c_17_0 :c_18_0 :c_19_0"/>
    <junction id=":c_24_0" type="internal" x="-4.45" y="2.21" incLanes=":c_19_0 e_to_c_0" intLanes=":c_1_0 :c_2_0 :c_3_0 :c_4_0 :c_5_0 :c_9_0 :c_10_0 :c_14_0 :c_15_0"/>
    <junction id=":e_6_0" type="internal" x="149.10" y="-1.17" incLanes=":e_1_0 n_to_e_0" intLanes=":e_3_0 :e_4_0 :e_5_0"/>
    <junction id=":n_6_0" type="internal" x="3.84" y="99.32" incLanes=":n_1_0 w_to_n_0" intLanes=":n_3_0 :n_4_0 :n_5_0"/>
    <junction id=":s1_6_0" type="internal" x="-51.25" y="-99.73" incLanes=":s1_5_0 s2_to_s1_0" intLanes=":s1_1_0 :s1_2_0 :s1_3_0"/>
    <junction id=":s2_6_0" type="internal" x="46.13" y="-100.38" incLanes=":s2_3_0 e_to_s2_0" intLanes=":s2_0_0 :s2_1_0 :s2_5_0"/>
    <junction id=":w_6_0" type="internal" x="-149.08" y="1.30" incLanes=":w_1_0 s1_to_w_0" intLanes=":w_3_0 :w_4_0 :w_5_0"/>

    <connection from="c_to_e" to="e_to_s2" fromLane="0" toLane="0" via=":e_2_0" tl="e" linkIndex="2" dir="r" state="o"/>
    <connection from="c_to_e" to="e_to_n" fromLane="0" toLane="0" via=":e_3_0" tl="e" linkIndex="3" dir="l" state="o"/>
    <connection from="c_to_n" to="n_to_e" fromLane="0" toLane="0" via=":n_2_0" dir="r" state="m"/>
    <connection from="c_to_n" to="n_to_w" fromLane="0" toLane="0" via=":n_3_0" dir="l" state="m"/>
    <connection from="c_to_s1" to="s1_to_w" fromLane="0" toLane="0" via=":s1_0_0" dir="r" state="m"/>
    <connection from="c_to_s1" to="s1_to_s2" fromLane="0" toLane="0" via=":s1_1_0" dir="l" state="m"/>
    <connection from="c_to_s2" to="s2_to_s1" fromLane="0" toLane="0" via=":s2_4_0" dir="r" state="m"/>
    <connection from="c_to_s2" to="s2_to_e" fromLane="0" toLane="0" via=":s2_5_0" dir="l" state="m"/>
    <connection from="c_to_w" to="w_to_n" fromLane="0" toLane="0" via=":w_2_0" tl="w" linkIndex="2" dir="r" state="o"/>
    <connection from="c_to_w" to="w_to_s1" fromLane="0" toLane="0" via=":w_3_0" tl="w" linkIndex="3" dir="l" state="o"/>
    <connection from="e_to_c" to="c_to_n" fromLane="0" toLane="0" via=":c_4_0" tl="c" linkIndex="4" dir="r" state="O"/>
    <connection from="e_to_c" to="c_to_w" fromLane="0" toLane="0" via=":c_5_0" tl="c" linkIndex="5" dir="s" state="O"/>
    <connection from="e_to_c" to="c_to_s1" fromLane="0" toLane="0" via=":c_6_0" tl="c" linkIndex="6" dir="L" state="o"/>
    <connection from="e_to_c" to="c_to_s2" fromLane="0" toLane="0" via=":c_7_0" tl="c" linkIndex="7" dir="l" state="o"/>
    <connection from="e_to_n" to="n_to_w" fromLane="0" toLane="0" via=":n_0_0" dir="s" state="M"/>
    <connection from="e_to_n" to="n_to_c" fromLane="0" toLane="0" via=":n_1_0" dir="l" state="m"/>
    <connection from="e_to_s2" to="s2_to_c" fromLane="0" toLane="0" via=":s2_0_0" dir="r" state="M"/>
    <connection from="e_to_s2" to="s2_to_s1" fromLane="0" toLane="0" via=":s2_1_0" dir="s" state="M"/>
    <connection from="n_to_c" to="c_to_w" fromLane="0" toLane="0" via=":c_0_0" tl="c" linkIndex="0" dir="r" state="o"/>
    <connection from="n_to_c" to="c_to_s1" fromLane="0" toLane="0" via=":c_1_0" tl="c" linkIndex="1" dir="R" state="o"/>
    <connection from="n_to_c" to="c_to_s2" fromLane="0" toLane="0" via=":c_2_0" tl="c" linkIndex="2" dir="s" state="o"/>
    <connection from="n_to_c" to="c_to_e" fromLane="0" toLane="0" via=":c_3_0" tl="c" linkIndex="3" dir="l" state="o"/>
    <connection from="n_to_e" to="e_to_c" fromLane="0" toLane="0" via=":e_4_0" tl="e" linkIndex="4" dir="r" state="O"/>
    <connection from="n_to_e" to="e_to_s2" fromLane="0" toLane="0" via=":e_5_0" tl="e" linkIndex="5" dir="s" state="O"/>
    <connection from="n_to_w" to="w_to_s1" fromLane="0" toLane="0" via=":w_0_0" tl="w" linkIndex="0" dir="s" state="O"/>
    <connection from="n_to_w" to="w_to_c" fromLane="0" toLane="0" via=":w_1_0" tl="w" linkIndex="1" dir="l" state="o"/>