<?xml version="1.0" ?>
<additional xmlns:xsi="http://www.w3.org/2001/XMLSchema-instance" xsi:noNamespaceSchemaLocation="http://sumo.dlr.de/xsd/additional_file.xsd">
 
    <route id="00" edges="c_to_e e_to_n"/>
    <route id="01" edges="c_to_e e_to_s2"/>
    <route id="02" edges="c_to_n n_to_e"/>
    <route id="03" edges="c_to_n n_to_w"/>
    <route id="04" edges="c_to_s1 s1_to_s2"/>
    <route id="05" edges="c_to_s1 s1_to_w"/>
    <route id="06" edges="c_to_s2 s2_to_e"/>
    <route id="07" edges="c_to_s2 s2_to_s1"/>
    <route id="08" edges="c_to_w w_to_n"/>
    <route id="09" edges="c_to_w w_to_s1"/>
    
    <route id="010" edges="e_to_c c_to_n"/>
    <route id="011" edges="e_to_c c_to_s1"/>
    <route id="012" edges="e_to_c c_to_s2"/>
    <route id="013" edges="e_to_c c_to_w"/>
    <route id="014" edges="e_to_n n_to_c"/>
    <route id="015" edges="e_to_n n_to_w"/>
    <route id="016" edges="e_to_s2 s2_to_c"/>
    <route id="017" edges="e_to_s2 s2_to_s1"/>

    <route id="020" edges="n_to_c c_to_e"/>
    <route id="021" edges="n_to_c c_to_s1"/>
    <route id="022" edges="n_to_c c_to_s2"/>
    <route id="023" edges="n_to_c c_to_w"/>
    <route id="024" edges="n_to_e e_to_c"/>
    <route id="025" edges="n_to_e e_to_s2"/>
    <route id="026" edges="n_to_w w_to_c"/>
    <route id="027" edges="n_to_w w_to_s1"/>

    <route id="030" edges="s1_to_c c_to_e"/>
    <route id="031" edges="s1_to_c c_to_n"/>
    <route id="032" edges="s1_to_c c_to_s2"/>
    <route id="033" edges="s1_to_c c_to_w"/>
    <route id="034" edges="s1_to_s2 s2_to_c"/>
    <route id="035" edges="s1_to_s2 s2_to_e"/>
    <route id="036" edges="s1_to_w w_to_c"/>
    <route id="037" edges="s1_to_w w_to_n"/>

    <route id="040" edges="s2_to_c c_to_e"/>
    <route id="041" edges="s2_to_c c_to_n"/>
    <route id="042" edges="s2_to_c c_to_s1"/>
    <route id="043" edges="s2_to_c c_to_w"/>
    <route id="044" edges="s2_to_e e_to_c"/>
    <route id="045" edges="s2_to_e e_to_n"/>
    <route id="046" edges="s2_to_s1 s1_to_c"/>
    <route id="047" edges="s2_to_s1 s1_to_w"/>

    <route id="050" edges="w_to_c c_to_e"/>
    <route id="051" edges="w_to_c c_to_n"/>
    <route id="052" edges="w_to_c c_to_s1"/>
    <route id="053" edges="w_to_c c_to_s2"/>
    <route id="054" edges="w_to_n n_to_c"/>
    <route id="055" edges="w_to_n n_to_e"/>
    <route id="056" edges="w_to_s1 s1_to_c"/>
    <route id="057" edges="w_to_s1 s1_to_s2"/>

    <rerouter id="rerouter_c_to_e" edges="c_to_e" probability="100.00">
        <interval begin="0.00" end="1000000.00">
            <routeProbReroute id="00" probability="50.00"/>
            <routeProbReroute id="01" probability="50.00"/>
        </interval>
    </rerouter>
    <rerouter id="rerouter_c_to_n" edges="c_to_n" probability="100.00">
        <interval begin="0.00" end="1000000.00">
            <routeProbReroute id="02" probability="50.00"/>
            <routeProbReroute id="03" probability="50.00"/>
        </interval>
    </rerouter>
    <rerouter id="rerouter_c_to_s1" edges="c_to_s1" probability="100.00">
        <interval begin="0.00" end="1000000.00">
            <routeProbReroute id="04" probability="50.00"/>
            <routeProbReroute id="05" probability="50.00"/>
        </interval>
    </rerouter>
    <rerouter id="rerouter_c_to_s2" edges="c_to_s2" probability="100.00">
        <interval begin="0.00" end="1000000.00">
            <routeProbReroute id="06" probability="50.00"/>
            <routeProbReroute id="07" probability="50.00"/>
        </interval>
    </rerouter>
    <rerouter id="rerouter_c_to_w" edges="c_to_w" probability="100.00">
        <interval begin="0.00" end="1000000.00">
            <routeProbReroute id="08" probability="50.00"/>
            <routeProbReroute id="09" probability="50.00"/>
        </interval>
    </rerouter>
    <rerouter id="rerouter_e_to_c" edges="e_to_c" probability="100.00">
        <interval begin="0.00" end="1000000.00">
            <routeProbReroute id="010" probability="25.00"/>
            <routeProbReroute id="011" probability="25.00"/>
            <routeProbReroute id="012" probability="25.00"/>
            <routeProbReroute id="013" probability="25.00"/>
        </interval>
    </rerouter>
    <rerouter id="rerouter_e_to_n" edges="e_to_n" probability="100.00">
        <interval begin="0.00" end="1000000.00">
            <routeProbReroute id="014" probability="50.00"/>
            <routeProbReroute id="015" probability="50.00"/>
        </interval>
    </rerouter>
    <rerouter id="rerouter_e_to_s2" edges="e_to_s2" probability="100.00">
        <interval begin="0.00" end="1000000.00">
            <routeProbReroute id="16" probability="50.00"/>
            <routeProbReroute id="17" probability="50.00"/>
        </interval>
    </rerouter>
    <rerouter id="rerouter_n_to_c" edges="n_to_c" probability="100.00">
        <interval begin="0.00" end="1000000.00">
            <routeProbReroute id="020" probability="25.00"/>
            <routeProbReroute id="021" probability="25.00"/>
            <routeProbReroute id="022" probability="25.00"/>
            <routeProbReroute id="023" probability="25.00"/>
        </interval>
    </rerouter>
    <rerouter id="rerouter_n_to_e" edges="n_to_e" probability="100.00">
        <interval begin="0.00" end="1000000.00">
            <routeProbReroute id="024" probability="50.00"/>
            <routeProbReroute id="025" probability="50.00"/>
        </interval>
    </rerouter>
    <rerouter id="rerouter_n_to_w" edges="n_to_w" probability="100.00">
        <interval begin="0.00" end="1000000.00">
            <routeProbReroute id="026" probability="50.00"/>
            <routeProbReroute id="027" probability="50.00"/>
        </interval>
    </rerouter>
    <rerouter id="rerouter_s1_to_c" edges="s1_to_c" probability="100.00">
        <interval begin="0.00" end="1000000.00">
            <routeProbReroute id="030" probability="25.00"/>
            <routeProbReroute id="031" probability="25.00"/>
            <routeProbReroute id="032" probability="25.00"/>
            <routeProbReroute id="033" probability="25.00"/>
        </interval>
    </rerouter>
    <rerouter id="rerouter_s1_to_s2" edges="s1_to_s2" probability="100.00">
        <interval begin="0.00" end="1000000.00">
            <routeProbReroute id="034" probability="50.00"/>
            <routeProbReroute id="035" probability="50.00"/>
        </interval>
    </rerouter>
    <rerouter id="rerouter_s1_to_w" edges="s1_to_w" probability="100.00">
        <interval begin="0.00" end="1000000.00">
            <routeProbReroute id="036" probability="50.00"/>
            <routeProbReroute id="037" probability="50.00"/>
        </interval>
    </rerouter>
    <rerouter id="rerouter_s2_to_c" edges="s2_to_c" probability="100.00">
        <interval begin="0.00" end="1000000.00">
            <routeProbReroute id="040" probability="25.00"/>
            <routeProbReroute id="041" probability="25.00"/>
            <routeProbReroute id="042" probability="25.00"/>
            <routeProbReroute id="043" probability="25.00"/>
        </interval>
    </rerouter>
    <rerouter id="rerouter_s2_to_e" edges="s2_to_e" probability="100.00">
        <interval begin="0.00" end="1000000.00">
            <routeProbReroute id="044" probability="50.00"/>
            <routeProbReroute id="045" probability="50.00"/>
        </interval>
    </rerouter>
    <rerouter id="rerouter_s2_to_s1" edges="s2_to_s1" probability="100.00">
        <interval begin="0.00" end="1000000.00">
            <routeProbReroute id="046" probability="50.00"/>
            <routeProbReroute id="047" probability="50.00"/>
        </interval>
    </rerouter>
    <rerouter id="rerouter_w_to_c" edges="w_to_c" probability="100.00">
        <interval begin="0.00" end="1000000.00">
            <routeProbReroute id="050" probability="25.00"/>
            <routeProbReroute id="051" probability="25.00"/>
            <routeProbReroute id="052" probability="25.00"/>
            <routeProbReroute id="053" probability="25.00"/>
        </interval>
    </rerouter>
    <rerouter id="rerouter_w_to_n" edges="w_to_n" probability="100.00">
        <interval begin="0.00" end="1000000.00">
            <routeProbReroute id="054" probability="50.00"/>
            <routeProbReroute id="055" probability="50.00"/>
        </interval>
    </rerouter>
    <rerouter id="rerouter_w_to_s1" edges="w_to_s1" probability="100.00">
        <interval begin="0.00" end="1000000.00">
            <routeProbReroute id="056" probability="50.00"/>
            <routeProbReroute id="057" probability="50.00"/>
        </interval>
    </rerouter>
</additional>