<!-- ============================================================================
 * Research Project: Data communication in the environment of
intelligent cars
 * Author: Kirill Komarov
 * Date: 2026
 * 
 * Description:
 * This file contains source code developed (or modified) as part of the 
 * research for the paper: "Data communication in the environment of
intelligent cars".
 * 
 * DISCLAIMER & ACKNOWLEDGEMENT:
 * Please note that this file contains or may contain code fragments, 
 * algorithms, or architectural solutions that were previously implemented 
 * in the "VaN3Twin" project https://github.com/DriveX-devs/VaN3Twin.git.
 * 
 * The borrowed code has been adapted and is used strictly for academic 
 * and research purposes. All rights to the original code segments belong 
 * to their respective original authors.
 * ============================================================================ -->
<routes>
	
	<route id="pedroute_0" edges="cross_n_5 cross_n_4 cross_n_3 cross_n_2 cross_n_1 cross_n_0"/>
	
        <person id="ped1000" depart="0">
        	<walk route="pedroute_0"/>
        </person>
        <person id="ped1001" depart="0.2">
        	<walk route="pedroute_0"/>
        </person>

</routes>
