<!-- ============================================================================
 * Research Project: Data communication in the environment of
intelligent cars
 * Author: Kirill Komarov
 * Date: 2026
 * 
 * Description:
 * This file contains source code developed (or modified) as part of the 
 * research for the paper: "Data communication in the environment of
intelligent cars".
 * 
 * DISCLAIMER & ACKNOWLEDGEMENT:
 * Please note that this file contains or may contain code fragments, 
 * algorithms, or architectural solutions that were previously implemented 
 * in the "VaN3Twin" project https://github.com/DriveX-devs/VaN3Twin.git.
 * 
 * The borrowed code has been adapted and is used strictly for academic 
 * and research purposes. All rights to the original code segments belong 
 * to their respective original authors.
 * ============================================================================ -->
<routes>

	<vehicle id="veh0" depart="0">
        	<route edges="sx_s_0 sx_s_1 sx_s_2 sx_s_3 sx_s_4 sx_s_5 sx_s_6 sx_s_7 sx_s_8 sx_s_9 sx_s_10 sx_s_11 sx_s_12"/>
        </vehicle>

</routes>
