<!-- number of vehicles:75 -->
<!-- generated on 2024-05-18 17:05:32.919904 by "vehicleFlow.py cars.rou.xml" -->
<routes>
  <route id="0" edges="ne_to_nw nw_to_sw sw_to_se se_to_ne"/>
  <route id="1" edges="nw_to_ne ne_to_se se_to_sw sw_to_nw"/>

  <vType accel="4" decel="7.5" emergencyDecel="10" minGap="1.0" id="Car0" maxSpeed="20.83" />
  <vType accel="4" decel="7.5" emergencyDecel="10" minGap="1.0" id="Car1" maxSpeed="20.83" vClass="emergency" />

      <vehicle id="veh1" type="Car0" depart="0.17323518046382766" route="1" departLane="best">
    </vehicle>
      <vehicle id="veh2" type="Car0" depart="0.29585400253852645" route="1" departLane="best">
    </vehicle>
      <vehicle id="veh3" type="Car0" depart="1.158961656661659" route="0" departLane="best">
    </vehicle>
      <vehicle id="veh4" type="Car0" depart="1.1730405377550945" route="1" departLane="best">
    </vehicle>
      <vehicle id="veh5" type="Car0" depart="1.7110807789037459" route="0" departLane="best">
    </vehicle>
      <vehicle id="veh6" type="Car0" depart="1.9440098144057671" route="0" departLane="best">
    </vehicle>
      <vehicle id="veh7" type="Car0" depart="2.324759599603532" route="1" departLane="best">
    </vehicle>
      <vehicle id="veh8" type="Car0" depart="2.984099665178019" route="0" departLane="best">
    </vehicle>
      <vehicle id="veh9" type="Car0" depart="4.058505802913828" route="1" departLane="best">
    </vehicle>
      <vehicle id="veh10" type="Car0" depart="4.449917855851862" route="0" departLane="best">
    </vehicle>
      <vehicle id="veh11" type="Car0" depart="4.452511098119533" route="1" departLane="best">
    </vehicle>
      <vehicle id="veh12" type="Car0" depart="5.078817403996247" route="0" departLane="best">
    </vehicle>
      <vehicle id="veh13" type="Car0" depart="5.608034321643168" route="1" departLane="best">
    </vehicle>
      <vehicle id="veh14" type="Car0" depart="5.62558186533559" route="0" departLane="best">
    </vehicle>
      <vehicle id="veh15" type="Car0" depart="5.888445413554824" route="1" departLane="best">
    </vehicle>
      <vehicle id="veh16" type="Car0" depart="7.379960725801883" route="0" departLane="best">
    </vehicle>
      <vehicle id="veh17" type="Car0" depart="7.69364631708672" route="1" departLane="best">
    </vehicle>
      <vehicle id="veh18" type="Car0" depart="7.70363671582568" route="1" departLane="best">
    </vehicle>
      <vehicle id="veh19" type="Car0" depart="8.28638549969868" route="1" departLane="best">
    </vehicle>
      <vehicle id="veh20" type="Car0" depart="8.509911838959214" route="0" departLane="best">
    </vehicle>
      <vehicle id="veh21" type="Car0" depart="9.766327455426685" route="1" departLane="best">
    </vehicle>
      <vehicle id="veh22" type="Car0" depart="9.888594370379435" route="0" departLane="best">
    </vehicle>
      <vehicle id="veh23" type="Car0" depart="9.900894758261705" route="0" departLane="best">
    </vehicle>
      <vehicle id="veh24" type="Car0" depart="9.95201918754196" route="0" departLane="best">
    </vehicle>
      <vehicle id="veh25" type="Car0" depart="10.009213248955593" route="1" departLane="best">
    </vehicle>
      <vehicle id="veh26" type="Car0" depart="10.10137193303761" route="0" departLane="best">
    </vehicle>
      <vehicle id="veh27" type="Car0" depart="10.3629899467622" route="0" departLane="best">
    </vehicle>
      <vehicle id="veh28" type="Car0" depart="10.53607867788747" route="0" departLane="best">
    </vehicle>
      <vehicle id="veh29" type="Car0" depart="10.87975266911089" route="1" departLane="best">
    </vehicle>
      <vehicle id="veh30" type="Car0" depart="11.28044917478857" route="1" departLane="best">
    </vehicle>
      <vehicle id="veh31" type="Car0" depart="11.67747471166794" route="0" departLane="best">
    </vehicle>
      <vehicle id="veh32" type="Car0" depart="11.71668733176122" route="0" departLane="best">
    </vehicle>
      <vehicle id="veh33" type="Car0" depart="11.877061650547596" route="0" departLane="best">
    </vehicle>
      <vehicle id="veh34" type="Car0" depart="12.102436012912214" route="0" departLane="best">
    </vehicle>
      <vehicle id="veh35" type="Car0" depart="12.59191062133605" route="1" departLane="best">
    </vehicle>
      <vehicle id="veh36" type="Car0" depart="12.64823520347576" route="0" departLane="best">
    </vehicle>
      <vehicle id="veh37" type="Car0" depart="12.709170470659956" route="1" departLane="best">
    </vehicle>
      <vehicle id="veh38" type="Car0" depart="12.804448034790096" route="1" departLane="best">
    </vehicle>
      <vehicle id="veh39" type="Car0" depart="14.47071315325528" route="0" departLane="best">
    </vehicle>
      <vehicle id="veh40" type="Car0" depart="14.48482183289886" route="0" departLane="best">
    </vehicle>
      <vehicle id="veh41" type="Car0" depart="14.778357234820135" route="0" departLane="best">
    </vehicle>
      <vehicle id="veh42" type="Car0" depart="15.4078558311438" route="0" departLane="best">
    </vehicle>
      <vehicle id="veh43" type="Car0" depart="15.78790400164086" route="0" departLane="best">
    </vehicle>
      <vehicle id="veh44" type="Car0" depart="15.80836375775583" route="1" departLane="best">
    </vehicle>
      <vehicle id="veh45" type="Car0" depart="15.90471061922791" route="1" departLane="best">
    </vehicle>
      <vehicle id="veh46" type="Car0" depart="17.75022589002813" route="1" departLane="best">
    </vehicle>
      <vehicle id="veh47" type="Car0" depart="17.82677530705824" route="1" departLane="best">
    </vehicle>
      <vehicle id="veh48" type="Car0" depart="17.902401470261495" route="1" departLane="best">
    </vehicle>
      <vehicle id="veh49" type="Car0" depart="17.957957803224335" route="1" departLane="best">
    </vehicle>
      <vehicle id="veh50" type="Car0" depart="18.00347675096535" route="1" departLane="best">
    </vehicle>
      <vehicle id="veh51" type="Car0" depart="18.10399687986274" route="0" departLane="best">
    </vehicle>
      <vehicle id="veh52" type="Car0" depart="18.45924425919379" route="1" departLane="best">
    </vehicle>
      <vehicle id="veh53" type="Car0" depart="19.80382426157958" route="1" departLane="best">
    </vehicle>
      <vehicle id="veh54" type="Car0" depart="19.86836804928019" route="1" departLane="best">
    </vehicle>
      <vehicle id="veh55" type="Car0" depart="19.90405275752044" route="0" departLane="best">
    </vehicle>
      <vehicle id="veh56" type="Car0" depart="19.92750567573588" route="0" departLane="best">
    </vehicle>
      <vehicle id="veh57" type="Car0" depart="19.94776569420982" route="1" departLane="best">
    </vehicle>
      <vehicle id="veh58" type="Car0" depart="19.99067116064977" route="0" departLane="best">
    </vehicle>
      <vehicle id="veh59" type="Car0" depart="20.04909896563126" route="1" departLane="best">
    </vehicle>
      <vehicle id="veh60" type="Car0" depart="20.157753757978476" route="0" departLane="best">
    </vehicle>
      <vehicle id="veh61" type="Car0" depart="20.380548477092766" route="0" departLane="best">
    </vehicle>
      <vehicle id="veh62" type="Car0" depart="20.608283896722035" route="1" departLane="best">
    </vehicle>
      <vehicle id="veh63" type="Car0" depart="20.89177971511318" route="1" departLane="best">
    </vehicle>
      <vehicle id="veh64" type="Car0" depart="21.572024444945384" route="0" departLane="best">
    </vehicle>
      <vehicle id="veh65" type="Car0" depart="21.608412752943564" route="0" departLane="best">
    </vehicle>
      <vehicle id="veh66" type="Car0" depart="21.689394100161856" route="0" departLane="best">
    </vehicle>
      <vehicle id="veh67" type="Car0" depart="21.88804486197626" route="0" departLane="best">
    </vehicle>
      <vehicle id="veh68" type="Car0" depart="22.03304643007516" route="1" departLane="best">
    </vehicle>
      <vehicle id="veh69" type="Car0" depart="22.33710785264753" route="0" departLane="best">
    </vehicle>
      <vehicle id="veh70" type="Car0" depart="22.50535681157082" route="0" departLane="best">
    </vehicle>
      <vehicle id="veh71" type="Car0" depart="22.55263580798312" route="1" departLane="best">
    </vehicle>
      <vehicle id="veh72" type="Car0" depart="22.66627497810768" route="0" departLane="best">
    </vehicle>
      <vehicle id="veh73" type="Car0" depart="23.20724336239105" route="0" departLane="best">
    </vehicle>
      <vehicle id="veh74" type="Car0" depart="23.36580619774027" route="0" departLane="best">
    </vehicle>
      <vehicle id="veh75" type="Car0" depart="23.50436910183101" route="1" departLane="best">
    </vehicle>
  <vehicle id="veh76" type="Car0" depart="23.57471061922791" route="1" departLane="best">
  </vehicle>
  <vehicle id="veh77" type="Car0" depart="24.75022589002813" route="1" departLane="best">
  </vehicle>
  <vehicle id="veh78" type="Car0" depart="24.82677530705824" route="1" departLane="best">
  </vehicle>
  <vehicle id="veh79" type="Car0" depart="24.882401470261495" route="1" departLane="best">
  </vehicle>
  <vehicle id="veh80" type="Car0" depart="24.907957803224335" route="1" departLane="best">
  </vehicle>
  <vehicle id="veh81" type="Car0" depart="24.98347675096535" route="1" departLane="best">
  </vehicle>
  <vehicle id="veh82" type="Car0" depart="25.04399687986274" route="0" departLane="best">
  </vehicle>
  <vehicle id="veh83" type="Car0" depart="25.45924425919379" route="1" departLane="best">
  </vehicle>
  <vehicle id="veh84" type="Car0" depart="25.80382426157958" route="1" departLane="best">
  </vehicle>
  <vehicle id="veh85" type="Car0" depart="25.86836804928019" route="1" departLane="best">
  </vehicle>
  <vehicle id="veh86" type="Car0" depart="25.90405275752044" route="0" departLane="best">
  </vehicle>
  <vehicle id="veh87" type="Car0" depart="26.58750567573588" route="0" departLane="best">
  </vehicle>
  <vehicle id="veh88" type="Car0" depart="26.70776569420982" route="1" departLane="best">
  </vehicle>
  <vehicle id="veh89" type="Car0" depart="26.79067116064977" route="0" departLane="best">
  </vehicle>
  <vehicle id="veh90" type="Car0" depart="26.90909896563126" route="1" departLane="best">
  </vehicle>
  <vehicle id="veh91" type="Car0" depart="26.957753757978476" route="0" departLane="best">
  </vehicle>
  <vehicle id="veh92" type="Car0" depart="27.380548477092766" route="0" departLane="best">
  </vehicle>
  <vehicle id="veh93" type="Car0" depart="27.608283896722035" route="1" departLane="best">
  </vehicle>
  <vehicle id="veh94" type="Car0" depart="27.89177971511318" route="1" departLane="best">
  </vehicle>
  <vehicle id="veh95" type="Car0" depart="27.902024444945384" route="0" departLane="best">
  </vehicle>
  <vehicle id="veh96" type="Car0" depart="28.328412752943564" route="0" departLane="best">
  </vehicle>
  <vehicle id="veh97" type="Car0" depart="28.689394100161856" route="0" departLane="best">
  </vehicle>
  <vehicle id="veh98" type="Car0" depart="28.88804486197626" route="0" departLane="best">
  </vehicle>
  <vehicle id="veh99" type="Car0" depart="28.90304643007516" route="1" departLane="best">
  </vehicle>
  <vehicle id="veh100" type="Car0" depart="28.99710785264753" route="0" departLane="best">
  </vehicle>
  <vehicle id="veh101" type="Car0" depart="29.2535681157082" route="0" departLane="best">
  </vehicle>
  <vehicle id="veh102" type="Car0" depart="29.9263580798312" route="1" departLane="best">
  </vehicle>
  <vehicle id="veh103" type="Car0" depart="30.66627497810768" route="0" departLane="best">
  </vehicle>
  <vehicle id="veh104" type="Car0" depart="30.95724336239105" route="0" departLane="best">
  </vehicle>
  <vehicle id="veh105" type="Car0" depart="31.02580619774027" route="0" departLane="best">
  </vehicle>
  <vehicle id="veh106" type="Car0" depart="31.18436910183101" route="1" departLane="best">
  </vehicle>
</routes>