<?xml version="1.0" encoding="UTF-8"?>

<!-- generated on 2025-10-07 13:43:08 by Eclipse SUMO netedit Version 1.20.0
<configuration xmlns:xsi="http://www.w3.org/2001/XMLSchema-instance" xsi:noNamespaceSchemaLocation="http://sumo.dlr.de/xsd/neteditConfiguration.xsd">

    <input>
        <sumo-net-file value="src/automotive/examples/sumo_files_v2v_map_congestion/map.net.xml"/>
    </input>

    <output>
        <output-file value="src/automotive/examples/sumo_files_v2v_map_congestion/map.net.xml"/>
    </output>

    <processing>
        <geometry.min-radius.fix.railways value="false"/>
        <geometry.max-grade.fix value="false"/>
        <offset.disable-normalization value="true"/>
        <lefthand value="0"/>
    </processing>

    <junctions>
        <no-internal-links value="true"/>
        <no-turnarounds value="true"/>
        <junctions.corner-detail value="5"/>
        <junctions.limit-turn-speed value="5.50"/>
        <rectangular-lane-cut value="0"/>
    </junctions>

    <pedestrian>
        <walkingareas value="0"/>
    </pedestrian>

</configuration>
-->

<net version="1.20" junctionCornerDetail="5" limitTurnSpeed="5.50" xmlns:xsi="http://www.w3.org/2001/XMLSchema-instance" xsi:noNamespaceSchemaLocation="http://sumo.dlr.de/xsd/net_file.xsd">

    <location netOffset="-394175.96,-4989734.74" convBoundary="-135.00,-100.00,185.00,-5.45" origBoundary="7.655664,45.053168,7.678963,45.076295" projParameter="+proj=utm +zone=32 +ellps=WGS84 +datum=WGS84 +units=m +no_defs"/>

    <edge id="ne_to_nw" from="ne" to="nw" priority="-1" length="250.00">
        <lane id="ne_to_nw_0" index="0" speed="30.00" length="250.00" width="3.00" shape="146.44,5.05 -96.44,5.05"/>
        <lane id="ne_to_nw_1" index="1" speed="30.00" length="250.00" width="3.00" shape="146.44,2.05 -96.44,2.05"/>
        <lane id="ne_to_nw_2" index="2" speed="30.00" length="250.00" width="3.00" shape="146.44,-0.95 -96.44,-0.95"/>
        <lane id="ne_to_nw_3" index="3" speed="30.00" length="250.00" width="3.00" shape="146.44,-3.95 -96.44,-3.95"/>
    </edge>
    <edge id="ne_to_se" from="ne" to="se" priority="-1" shape="150.00,-5.45 180.00,-25.00 185.00,-50.00 180.00,-80.00 150.00,-100.00">
        <lane id="ne_to_se_0" index="0" speed="30.00" length="127.77" width="3.00" shape="147.25,-16.19 170.57,-31.39 174.33,-50.17 170.39,-73.79 147.20,-89.25"/>
        <lane id="ne_to_se_1" index="1" speed="30.00" length="127.77" width="3.00" shape="148.89,-13.68 173.26,-29.56 177.38,-50.12 173.14,-75.56 148.86,-91.74"/>
        <lane id="ne_to_se_2" index="2" speed="30.00" length="127.77" width="3.00" shape="150.53,-11.17 175.96,-27.74 180.43,-50.07 175.88,-77.34 150.53,-94.24"/>
        <lane id="ne_to_se_3" index="3" speed="30.00" length="127.77" width="3.00" shape="152.17,-8.65 178.65,-25.91 183.48,-50.02 178.63,-79.11 152.19,-96.74"/>
    </edge>
    <edge id="nw_to_ne" from="nw" to="ne" priority="-1" length="250.00">
        <lane id="nw_to_ne_0" index="0" speed="30.00" length="250.00" width="3.00" shape="-96.44,-15.95 146.44,-15.95"/>
        <lane id="nw_to_ne_1" index="1" speed="30.00" length="250.00" width="3.00" shape="-96.44,-12.95 146.44,-12.95"/>
        <lane id="nw_to_ne_2" index="2" speed="30.00" length="250.00" width="3.00" shape="-96.44,-9.95 146.44,-9.95"/>
        <lane id="nw_to_ne_3" index="3" speed="30.00" length="250.00" width="3.00" shape="-96.44,-6.95 146.44,-6.95"/>
    </edge>
    <edge id="nw_to_sw" from="nw" to="sw" priority="-1" shape="-100.00,-5.45 -130.00,-25.00 -135.00,-50.00 -130.00,-80.00 -100.00,-100.00">
        <lane id="nw_to_sw_0" index="0" speed="30.00" length="127.77" width="3.00" shape="-108.72,1.40 -139.43,-18.61 -145.67,-49.83 -139.61,-86.21 -108.85,-106.72"/>
        <lane id="nw_to_sw_1" index="1" speed="30.00" length="127.77" width="3.00" shape="-107.08,-1.11 -136.74,-20.44 -142.62,-49.88 -136.86,-84.44 -107.18,-104.22"/>
        <lane id="nw_to_sw_2" index="2" speed="30.00" length="127.77" width="3.00" shape="-105.44,-3.63 -134.04,-22.26 -139.57,-49.93 -134.12,-82.66 -105.52,-101.73"/>
        <lane id="nw_to_sw_3" index="3" speed="30.00" length="127.77" width="3.00" shape="-103.81,-6.14 -131.35,-24.09 -136.52,-49.98 -131.37,-80.89 -103.86,-99.23"/>
    </edge>
    <edge id="se_to_ne" from="se" to="ne" priority="-1" shape="150.00,-100.00 180.00,-80.00 185.00,-50.00 180.00,-25.00 150.00,-5.45">
        <lane id="se_to_ne_0" index="0" speed="30.00" length="127.77" width="3.00" shape="158.85,-106.72 189.61,-86.21 195.67,-49.83 189.43,-18.61 158.72,1.40"/>
        <lane id="se_to_ne_1" index="1" speed="30.00" length="127.77" width="3.00" shape="157.18,-104.22 186.86,-84.44 192.62,-49.88 186.74,-20.44 157.08,-1.11"/>
        <lane id="se_to_ne_2" index="2" speed="30.00" length="127.77" width="3.00" shape="155.52,-101.73 184.12,-82.66 189.57,-49.93 184.04,-22.26 155.44,-3.63"/>
        <lane id="se_to_ne_3" index="3" speed="30.00" length="127.77" width="3.00" shape="153.86,-99.23 181.37,-80.89 186.52,-49.98 181.35,-24.09 153.81,-6.14"/>
    </edge>
    <edge id="se_to_sw" from="se" to="sw" priority="-1">
        <lane id="se_to_sw_0" index="0" speed="30.00" length="250.00" width="3.00" shape="146.37,-89.50 -96.37,-89.50"/>
        <lane id="se_to_sw_1" index="1" speed="30.00" length="250.00" width="3.00" shape="146.37,-92.50 -96.37,-92.50"/>
        <lane id="se_to_sw_2" index="2" speed="30.00" length="250.00" width="3.00" shape="146.37,-95.50 -96.37,-95.50"/>
        <lane id="se_to_sw_3" index="3" speed="30.00" length="250.00" width="3.00" shape="146.37,-98.50 -96.37,-98.50"/>
    </edge>
    <edge id="sw_to_nw" from="sw" to="nw" priority="-1" shape="-100.00,-100.00 -130.00,-80.00 -135.00,-50.00 -130.00,-25.00 -100.00,-5.45">
        <lane id="sw_to_nw_0" index="0" speed="30.00" length="127.77" width="3.00" shape="-97.20,-89.25 -120.39,-73.79 -124.33,-50.17 -120.57,-31.39 -97.25,-16.19"/>
        <lane id="sw_to_nw_1" index="1" speed="30.00" length="127.77" width="3.00" shape="-98.86,-91.74 -123.14,-75.56 -127.38,-50.12 -123.26,-29.56 -98.89,-13.68"/>
        <lane id="sw_to_nw_2" index="2" speed="30.00" length="127.77" width="3.00" shape="-100.53,-94.24 -125.88,-77.34 -130.43,-50.07 -125.96,-27.74 -100.53,-11.17"/>
        <lane id="sw_to_nw_3" index="3" speed="30.00" length="127.77" width="3.00" shape="-102.19,-96.74 -128.63,-79.11 -133.48,-50.02 -128.65,-25.91 -102.17,-8.65"/>
    </edge>
    <edge id="sw_to_se" from="sw" to="se" priority="-1">
        <lane id="sw_to_se_0" index="0" speed="30.00" length="250.00" width="3.00" shape="-96.37,-110.50 146.37,-110.50"/>
        <lane id="sw_to_se_1" index="1" speed="30.00" length="250.00" width="3.00" shape="-96.37,-107.50 146.37,-107.50"/>
        <lane id="sw_to_se_2" index="2" speed="30.00" length="250.00" width="3.00" shape="-96.37,-104.50 146.37,-104.50"/>
        <lane id="sw_to_se_3" index="3" speed="30.00" length="250.00" width="3.00" shape="-96.37,-101.50 146.37,-101.50"/>
    </edge>

    <junction id="ne" type="priority" x="150.00" y="-5.45" incLanes="se_to_ne_0 se_to_ne_1 se_to_ne_2 se_to_ne_3 nw_to_ne_0 nw_to_ne_1 nw_to_ne_2 nw_to_ne_3" intLanes="" shape="159.54,2.66 146.44,-17.45 146.44,6.55 149.38,6.52 151.60,6.37 153.40,6.00 155.12,5.32 157.05,4.24">
        <request index="0" response="00000000" foes="00000000"/>
        <request index="1" response="00000000" foes="00000000"/>
        <request index="2" response="00000000" foes="00000000"/>
        <request index="3" response="00000000" foes="00000000"/>
        <request index="4" response="00000000" foes="00000000"/>
        <request index="5" response="00000000" foes="00000000"/>
        <request index="6" response="00000000" foes="00000000"/>
        <request index="7" response="00000000" foes="00000000"/>
    </junction>
    <junction id="nw" type="priority" x="-100.00" y="-5.45" incLanes="ne_to_nw_0 ne_to_nw_1 ne_to_nw_2 ne_to_nw_3 sw_to_nw_0 sw_to_nw_1 sw_to_nw_2 sw_to_nw_3" intLanes="" shape="-96.44,6.55 -96.44,-17.45 -109.54,2.66 -107.05,4.24 -105.12,5.32 -103.40,6.00 -101.60,6.37 -99.38,6.52">
        <request index="0" response="00000000" foes="00000000"/>
        <request index="1" response="00000000" foes="00000000"/>
        <request index="2" response="00000000" foes="00000000"/>
        <request index="3" response="00000000" foes="00000000"/>
        <request index="4" response="00000000" foes="00000000"/>
        <request index="5" response="00000000" foes="00000000"/>
        <request index="6" response="00000000" foes="00000000"/>
        <request index="7" response="00000000" foes="00000000"/>
    </junction>
    <junction id="se" type="priority" x="150.00" y="-100.00" incLanes="ne_to_se_0 ne_to_se_1 ne_to_se_2 ne_to_se_3 sw_to_se_0 sw_to_se_1 sw_to_se_2 sw_to_se_3" intLanes="" shape="146.37,-88.00 159.68,-107.97 157.17,-109.61 155.20,-110.73 153.46,-111.43 151.62,-111.81 149.37,-111.97 146.37,-112.00">
        <request index="0" response="00000000" foes="00000000"/>
        <request index="1" response="00000000" foes="00000000"/>
        <request index="2" response="00000000" foes="00000000"/>
        <request index="3" response="00000000" foes="00000000"/>
        <request index="4" response="00000000" foes="00000000"/>
        <request index="5" response="00000000" foes="00000000"/>
        <request index="6" response="00000000" foes="00000000"/>
        <request index="7" response="00000000" foes="00000000"/>
    </junction>
    <junction id="sw" type="priority" x="-100.00" y="-100.00" incLanes="se_to_sw_0 se_to_sw_1 se_to_sw_2 se_to_sw_3 nw_to_sw_0 nw_to_sw_1 nw_to_sw_2 nw_to_sw_3" intLanes="" shape="-96.37,-88.00 -96.37,-112.00 -99.37,-111.97 -101.62,-111.81 -103.46,-111.43 -105.20,-110.73 -107.17,-109.61 -109.68,-107.97">
        <request index="0" response="00000000" foes="00000000"/>
        <request index="1" response="00000000" foes="00000000"/>
        <request index="2" response="00000000" foes="00000000"/>
        <request index="3" response="00000000" foes="00000000"/>
        <request index="4" response="00000000" foes="00000000"/>
        <request index="5" response="00000000" foes="00000000"/>
        <request index="6" response="00000000" foes="00000000"/>
        <request index="7" response="00000000" foes="00000000"/>
    </junction>

    <connection from="ne_to_nw" to="nw_to_sw" fromLane="0" toLane="0" dir="s" state="M"/>
    <connection from="ne_to_nw" to="nw_to_sw" fromLane="1" toLane="1" dir="s" state="M"/>
    <connection from="ne_to_nw" to="nw_to_sw" fromLane="2" toLane="2" dir="s" state="M"/>
    <connection from="ne_to_nw" to="nw_to_sw" fromLane="3" toLane="3" dir="s" state="M"/>
    <connection from="ne_to_se" to="se_to_sw" fromLane="0" toLane="0" dir="s" state="M"/>
    <connection from="ne_to_se" to="se_to_sw" fromLane="1" toLane="1" dir="s" state="M"/>
    <connection from="ne_to_se" to="se_to_sw" fromLane="2" toLane="2" dir="s" state="M"/>
    <connection from="ne_to_se" to="se_to_sw" fromLane="3" toLane="3" dir="s" state="M"/>
    <connection from="nw_to_ne" to="ne_to_se" fromLane="0" toLane="0" dir="s" state="M"/>
    <connection from="nw_to_ne" to="ne_to_se" fromLane="1" toLane="1" dir="s" state="M"/>
    <connection from="nw_to_ne" to="ne_to_se" fromLane="2" toLane="2" dir="s" state="M"/>
    <connection from="nw_to_ne" to="ne_to_se" fromLane="3" toLane="3" dir="s" state="M"/>
    <connection from="nw_to_sw" to="sw_to_se" fromLane="0" toLane="0" dir="s" state="M"/>
    <connection from="nw_to_sw" to="sw_to_se" fromLane="1" toLane="1" dir="s" state="M"/>
    <connection from="nw_to_sw" to="sw_to_se" fromLane="2" toLane="2" dir="s" state="M"/>
    <connection from="nw_to_sw" to="sw_to_se" fromLane="3" toLane="3" dir="s" state="M"/>
    <connection from="se_to_ne" to="ne_to_nw" fromLane="0" toLane="0" dir="s" state="M"/>
    <connection from="se_to_ne" to="ne_to_nw" fromLane="1" toLane="1" dir="s" state="M"/>
    <connection from="se_to_ne" to="ne_to_nw" fromLane="2" toLane="2" dir="s" state="M"/>
    <connection from="se_to_ne" to="ne_to_nw" fromLane="3" toLane="3" dir="s" state="M"/>
    <connection from="se_to_sw" to="sw_to_nw" fromLane="0" toLane="0" dir="s" state="M"/>
    <connection from="se_to_sw" to="sw_to_nw" fromLane="1" toLane="1" dir="s" state="M"/>
    <connection from="se_to_sw" to="sw_to_nw" fromLane="2" toLane="2" dir="s" state="M"/>
    <connection from="se_to_sw" to="sw_to_nw" fromLane="3" toLane="3" dir="s" state="M"/>
    <connection from="sw_to_nw" to="nw_to_ne" fromLane="0" toLane="0" dir="s" state="M"/>
    <connection from="sw_to_nw" to="nw_to_ne" fromLane="1" toLane="1" dir="s" state="M"/>
    <connection from="sw_to_nw" to="nw_to_ne" fromLane="2" toLane="2" dir="s" state="M"/>
    <connection from="sw_to_nw" to="nw_to_ne" fromLane="3" toLane="3" dir="s" state="M"/>
    <connection from="sw_to_se" to="se_to_ne" fromLane="0" toLane="0" dir="s" state="M"/>
    <connection from="sw_to_se" to="se_to_ne" fromLane="1" toLane="1" dir="s" state="M"/>
    <connection from="sw_to_se" to="se_to_ne" fromLane="2" toLane="2" dir="s" state="M"/>
    <connection from="sw_to_se" to="se_to_ne" fromLane="3" toLane="3" dir="s" state="M"/>

</net>
