<?xml version="1.0" encoding="UTF-8"?>

<!-- generated on 2025-10-07 13:31:48 by Eclipse SUMO netedit Version 1.20.0
<configuration xmlns:xsi="http://www.w3.org/2001/XMLSchema-instance" xsi:noNamespaceSchemaLocation="http://sumo.dlr.de/xsd/neteditConfiguration.xsd">

    <input>
        <sumo-net-file value="src/automotive/examples/sumo_files_v2v_map_congestion/map.net.xml"/>
    </input>

    <output>
        <output-file value="src/automotive/examples/sumo_files_v2v_map_congestion/map.net.xml"/>
    </output>

    <processing>
        <geometry.min-radius.fix.railways value="false"/>
        <geometry.max-grade.fix value="false"/>
        <offset.disable-normalization value="true"/>
        <lefthand value="0"/>
    </processing>

    <junctions>
        <no-internal-links value="true"/>
        <no-turnarounds value="true"/>
        <junctions.corner-detail value="5"/>
        <junctions.limit-turn-speed value="5.50"/>
        <rectangular-lane-cut value="0"/>
    </junctions>

    <pedestrian>
        <walkingareas value="0"/>
    </pedestrian>

</configuration>
-->

<net version="1.20" junctionCornerDetail="5" limitTurnSpeed="5.50" xmlns:xsi="http://www.w3.org/2001/XMLSchema-instance" xsi:noNamespaceSchemaLocation="http://sumo.dlr.de/xsd/net_file.xsd">

    <location netOffset="-394175.96,-4989734.74" convBoundary="-5000.00,-5.45,500.00,-5.45" origBoundary="7.655664,45.053168,7.678963,45.076295" projParameter="+proj=utm +zone=32 +ellps=WGS84 +datum=WGS84 +units=m +no_defs"/>

    <edge id="ne_to_nw" from="ne" to="nw" priority="-1" length="1000.00">
        <lane id="ne_to_nw_0" index="0" speed="30.00" length="1000.00" width="9.00" shape="500.00,35.05 -5000.00,35.05"/>
        <lane id="ne_to_nw_1" index="1" speed="30.00" length="1000.00" width="9.00" shape="500.00,26.05 -5000.00,26.05"/>
        <lane id="ne_to_nw_2" index="2" speed="30.00" length="1000.00" width="9.00" shape="500.00,17.05 -5000.00,17.05"/>
        <lane id="ne_to_nw_3" index="3" speed="30.00" length="1000.00" width="9.00" shape="500.00,8.05 -5000.00,8.05"/>
        <lane id="ne_to_nw_4" index="4" speed="30.00" length="1000.00" width="9.00" shape="500.00,-0.95 -5000.00,-0.95"/>
    </edge>
    <edge id="nw_to_ne" from="nw" to="ne" priority="-1" length="1000.00">
        <lane id="nw_to_ne_0" index="0" speed="30.00" length="1000.00" width="9.00" shape="-5000.00,-45.95 500.00,-45.95"/>
        <lane id="nw_to_ne_1" index="1" speed="30.00" length="1000.00" width="9.00" shape="-5000.00,-36.95 500.00,-36.95"/>
        <lane id="nw_to_ne_2" index="2" speed="30.00" length="1000.00" width="9.00" shape="-5000.00,-27.95 500.00,-27.95"/>
        <lane id="nw_to_ne_3" index="3" speed="30.00" length="1000.00" width="9.00" shape="-5000.00,-18.95 500.00,-18.95"/>
        <lane id="nw_to_ne_4" index="4" speed="30.00" length="1000.00" width="9.00" shape="-5000.00,-9.95 500.00,-9.95"/>
    </edge>

    <junction id="ne" type="dead_end" x="500.00" y="-5.45" incLanes="nw_to_ne_0 nw_to_ne_1 nw_to_ne_2 nw_to_ne_3 nw_to_ne_4" intLanes="" shape="500.00,-5.45 500.00,-50.45 500.00,-5.45"/>
    <junction id="nw" type="dead_end" x="-5000.00" y="-5.45" incLanes="ne_to_nw_0 ne_to_nw_1 ne_to_nw_2 ne_to_nw_3 ne_to_nw_4" intLanes="" shape="-5000.00,-5.45 -5000.00,39.55 -5000.00,-5.45"/>

</net>
