<?xml version='1.0' encoding='UTF-8'?>
<!-- ============================================================================
 * Research Project: Data communication in the environment of
intelligent cars
 * Author: Kirill Komarov
 * Date: 2026
 * 
 * Description:
 * This file contains source code developed (or modified) as part of the 
 * research for the paper: "Data communication in the environment of
intelligent cars".
 * 
 * DISCLAIMER & ACKNOWLEDGEMENT:
 * Please note that this file contains or may contain code fragments, 
 * algorithms, or architectural solutions that were previously implemented 
 * in the "VaN3Twin" project https://github.com/DriveX-devs/VaN3Twin.git.
 * 
 * The borrowed code has been adapted and is used strictly for academic 
 * and research purposes. All rights to the original code segments belong 
 * to their respective original authors.
 * ============================================================================ -->
<additional xmlns:xsi="http://www.w3.org/2001/XMLSchema-instance" xsi:noNamespaceSchemaLocation="http://sumo.dlr.de/xsd/additional_file.xsd">
    <route id="00" edges="w_to_c1 c1_to_c2 c2_to_e" />
    <route id="01" edges="n1_to_c1 c1_to_s1" />
    <route id="010" edges="s1_to_c1 c1_to_c2 c2_to_s2" />
    <route id="011" edges="s1_to_c1 c1_to_c2 c2_to_e" />
    <route id="012" edges="s1_to_c1 c1_to_c2 c2_to_n2" />
    <route id="013" edges="s1_to_c1 c1_to_w" />
    <route id="014" edges="s2_to_c2 c2_to_e" />
    <route id="015" edges="s2_to_c2 c2_to_c1 c1_to_n1" />
    <route id="016" edges="s2_to_c2 c2_to_c1 c1_to_w" />
    <route id="017" edges="s2_to_c2 c2_to_c1 c1_to_s1" />
    <route id="018" edges="e_to_c2 c2_to_n2" />
    <route id="019" edges="e_to_c2 c2_to_c1 c1_to_n1" />
    <route id="02" edges="s1_to_c1 c1_to_n1" />
    <route id="020" edges="e_to_c2 c2_to_c1 c1_to_s1" />
    <route id="021" edges="e_to_c2 c2_to_s2" />
    <route id="022" edges="n2_to_c2 c2_to_c1 c1_to_n1" />
    <route id="023" edges="n2_to_c2 c2_to_c1 c1_to_w" />
    <route id="024" edges="n2_to_c2 c2_to_c1 c1_to_s1" />
    <route id="025" edges="n2_to_c2 c2_to_e" />
    <route id="026" edges="n1_to_c1 c1_to_w" />
    <route id="027" edges="n1_to_c1 c1_to_c2 c2_to_s2" />
    <route id="028" edges="n1_to_c1 c1_to_c2 c2_to_e" />
    <route id="029" edges="n1_to_c1 c1_to_c2 c2_to_n2" />
    <route id="03" edges="n2_to_c2 c2_to_s2" />
    <route id="030" edges="c1_to_w w_to_n1 n1_to_c1" />
    <route id="031" edges="c1_to_w w_to_s1 s1_to_c1" />
    <route id="032" edges="c1_to_s1 s1_to_w w_to_c1" />
    <route id="033" edges="c1_to_s1 s1_to_s2 s2_to_c2" />
    <route id="034" edges="c2_to_e e_to_s2 s2_to_c2" />
    <route id="035" edges="c2_to_e e_to_ne ne_to_n2 n2_to_c2" />
    <route id="036" edges="c1_to_n1 n1_to_n2 n2_to_c2" />
    <route id="037" edges="c1_to_n1 n1_to_w w_to_c1" />
    <route id="038" edges="c2_to_n2 n2_to_ne ne_to_e e_to_c2" />
    <route id="039" edges="c2_to_n2 n2_to_n1 n1_to_c1" />
    <route id="04" edges="e_to_c2 c2_to_c1 c1_to_w" />
    <route id="040" edges="c2_to_s2 s2_to_s1 s1_to_c1" />
    <route id="041" edges="c2_to_s2 s2_to_e e_to_c2" />
    <route id="042" edges="w_to_n1 n1_to_c1" />
    <route id="043" edges="w_to_n1 n1_to_n2" />
    <route id="044" edges="n1_to_n2 n2_to_c2" />
    <route id="045" edges="n1_to_n2 n2_to_ne ne_to_e" />
    <route id="046" edges="e_to_s2 s2_to_c2" />
    <route id="047" edges="e_to_s2 s2_to_s1" />
    <route id="048" edges="s1_to_w w_to_c1" />
    <route id="049" edges="s1_to_w w_to_n1" />
    <route id="05" edges="s2_to_c2 c2_to_n2" />
    <route id="050" edges="w_to_s1 s1_to_c1" />
    <route id="051" edges="w_to_s1 s1_to_s2" />
    <route id="052" edges="s1_to_s2 s2_to_c2" />
    <route id="053" edges="s1_to_s2 s2_to_e" />
    <route id="054" edges="n2_to_ne ne_to_e e_to_c2" />
    <route id="055" edges="n2_to_ne ne_to_e e_to_s2" />
    <route id="056" edges="e_to_ne ne_to_n2 n2_to_c2" />
    <route id="057" edges="e_to_ne ne_to_n2 n2_to_n1" />
    <route id="058" edges="n2_to_n1 n1_to_w" />
    <route id="059" edges="n2_to_n1 n1_to_c1" />
    <route id="06" edges="w_to_c1 c1_to_s1" />
    <route id="060" edges="n1_to_w w_to_c1" />
    <route id="061" edges="n1_to_w w_to_s1" />
    <route id="062" edges="s2_to_e e_to_c2" />
    <route id="063" edges="s2_to_e e_to_ne ne_to_n2" />
    <route id="064" edges="s2_to_s1 s1_to_c1" />
    <route id="065" edges="s2_to_s1 s1_to_w" />
    <route id="07" edges="w_to_c1 c1_to_c2 c2_to_s2" />
    <route id="08" edges="w_to_c1 c1_to_c2 c2_to_n2" />
    <route id="09" edges="w_to_c1 c1_to_n1" />
    <route id="100" edges="ne_to_c2 c2_to_n2 n2_to_ne" />
    <route id="101" edges="ne_to_c2 c2_to_n2 n2_to_n1" />
    <route id="102" edges="ne_to_c2 c2_to_c1 c1_to_n1" />
    <route id="103" edges="ne_to_c2 c2_to_c1 c1_to_w" />
    <route id="104" edges="ne_to_c2 c2_to_c1 c1_to_w" />
    <route id="105" edges="ne_to_c2 c2_to_c1 c1_to_s1" />
    <route id="106" edges="ne_to_c2 c2_to_s1 s1_to_c1" />
    <route id="107" edges="ne_to_c2 c2_to_s1 s1_to_w" />
    <route id="108" edges="ne_to_c2 c2_to_s1 s1_to_s2" />
    <route id="109" edges="ne_to_c2 c2_to_s2 s2_to_s1" />
    <route id="110" edges="ne_to_c2 c2_to_s2 s2_to_e" />
    <route id="111" edges="ne_to_c2 c2_to_e e_to_s2" />
    <route id="112" edges="ne_to_c2 c2_to_e e_to_ne" />
    <route id="113" edges="s1_to_c2 c2_to_s2 s2_to_s1" />
    <route id="114" edges="s1_to_c2 c2_to_s2 s2_to_e" />
    <route id="115" edges="s1_to_c2 c2_to_e e_to_s2" />
    <route id="116" edges="s1_to_c2 c2_to_e e_to_ne" />
    <route id="117" edges="s1_to_c2 c2_to_ne ne_to_e" />
    <route id="118" edges="s1_to_c2 c2_to_ne ne_to_n2" />
    <route id="119" edges="s1_to_c2 c2_to_n2 n2_to_ne" />
    <route id="120" edges="s1_to_c2 c2_to_n2 n2_to_n1" />
    <route id="121" edges="s1_to_c2 c2_to_c1 c1_to_n1" />
    <route id="122" edges="s1_to_c2 c2_to_c1 c1_to_w" />
    <route id="123" edges="s1_to_c2 c2_to_c1 c1_to_w" />
    <route id="124" edges="s1_to_c2 c2_to_c1 c1_to_s1" />
    <route id="125" edges="e_to_c2 c2_to_ne ne_to_e" />
    <route id="126" edges="e_to_c2 c2_to_ne ne_to_n2" />
    <route id="127" edges="e_to_c2 c2_to_s1 s1_to_c1" />
    <route id="128" edges="e_to_c2 c2_to_s1 s1_to_w" />
    <route id="129" edges="e_to_c2 c2_to_s1 s1_to_s2" />
    <route id="130" edges="n2_to_c2 c2_to_ne ne_to_e" />
    <route id="131" edges="n2_to_c2 c2_to_ne ne_to_n2" />
    <route id="132" edges="n2_to_c2 c2_to_s1 s1_to_c1" />
    <route id="133" edges="n2_to_c2 c2_to_s1 s1_to_w" />
    <route id="134" edges="n2_to_c2 c2_to_s1 s1_to_s2" />
    <route id="135" edges="s2_to_c2 c2_to_ne ne_to_e" />
    <route id="136" edges="s2_to_c2 c2_to_ne ne_to_n2" />
    <route id="137" edges="s2_to_c2 c2_to_s1 s1_to_c1" />
    <route id="138" edges="s2_to_c2 c2_to_s1 s1_to_w" />
    <route id="139" edges="s2_to_c2 c2_to_s1 s1_to_s2" />
    <route id="140" edges="c1_to_c2 c2_to_ne ne_to_e" />
    <route id="141" edges="c1_to_c2 c2_to_ne ne_to_n2" />
    <route id="142" edges="c1_to_c2 c2_to_s1 s1_to_c1" />
    <route id="143" edges="c1_to_c2 c2_to_s1 s1_to_w" />
    <route id="144" edges="c1_to_c2 c2_to_s1 s1_to_s2" />
    <route id="145" edges="w_to_c1 c1_to_c2 c2_to_ne" />
    <route id="146" edges="w_to_c1 c1_to_c2 c2_to_ne" />
    <route id="147" edges="w_to_c1 c1_to_c2 c2_to_s1" />
    <route id="148" edges="w_to_c1 c1_to_c2 c2_to_s1" />
    <route id="149" edges="w_to_c1 c1_to_c2 c2_to_s1" />
    <route id="150" edges="n1_to_c1 c1_to_c2 c2_to_ne" />
    <route id="151" edges="n1_to_c1 c1_to_c2 c2_to_ne" />
    <route id="152" edges="n1_to_c1 c1_to_c2 c2_to_s1" />
    <route id="153" edges="n1_to_c1 c1_to_c2 c2_to_s1" />
    <route id="154" edges="n1_to_c1 c1_to_c2 c2_to_s1" />
    <route id="155" edges="s1_to_c1 c1_to_c2 c2_to_ne" />
    <route id="156" edges="s1_to_c1 c1_to_c2 c2_to_ne" />
    <route id="157" edges="s1_to_c1 c1_to_c2 c2_to_s1" />
    <route id="158" edges="s1_to_c1 c1_to_c2 c2_to_s1" />
    <route id="159" edges="s1_to_c1 c1_to_c2 c2_to_s1" />
    <route id="160" edges="c2_to_ne ne_to_e" />
    <route id="161" edges="c2_to_ne ne_to_n2" />
    <route id="162" edges="c2_to_s1 s1_to_c1" />
    <route id="163" edges="c2_to_s1 s1_to_w" />
    <route id="164" edges="c2_to_s1 s1_to_s2" />
    <rerouter id="rerouter_0" edges="w_to_c1" pos="-83.45,-14.85" probability="100.00">
        <interval begin="0.00" end="1000000.00">
            <routeProbReroute id="00" probability="10.00" />
            <routeProbReroute id="06" probability="10.00" />
            <routeProbReroute id="07" probability="10.00" />
            <routeProbReroute id="08" probability="10.00" />
            <routeProbReroute id="09" probability="10.00" />
            <routeProbReroute id="145" probability="10.00" />
            <routeProbReroute id="146" probability="10.00" />
            <routeProbReroute id="147" probability="10.00" />
            <routeProbReroute id="148" probability="10.00" />
            <routeProbReroute id="149" probability="10.00" />
        </interval>
    </rerouter>
    <rerouter id="rerouter_1" edges="n1_to_c1" pos="-76.79,21.64" probability="100.00">
        <interval begin="0.00" end="1000000.00">
            <routeProbReroute id="01" probability="10.00" />
            <routeProbReroute id="026" probability="10.00" />
            <routeProbReroute id="027" probability="10.00" />
            <routeProbReroute id="028" probability="10.00" />
            <routeProbReroute id="029" probability="10.00" />
            <routeProbReroute id="150" probability="10.00" />
            <routeProbReroute id="151" probability="10.00" />
            <routeProbReroute id="152" probability="10.00" />
            <routeProbReroute id="153" probability="10.00" />
            <routeProbReroute id="154" probability="10.00" />
        </interval>
    </rerouter>
    <rerouter id="rerouter_10" edges="c2_to_n2" pos="58.28,83.14" probability="100.00">
        <interval begin="0.00" end="1000000.00">
            <routeProbReroute id="038" probability="50.00" />
            <routeProbReroute id="039" probability="50.00" />
        </interval>
    </rerouter>
    <rerouter id="rerouter_11" edges="c2_to_s2" pos="74.79,-82.90" probability="100.00">
        <interval begin="0.00" end="1000000.00">
            <routeProbReroute id="040" probability="50.00" />
            <routeProbReroute id="041" probability="50.00" />
        </interval>
    </rerouter>
    <rerouter id="rerouter_12" edges="w_to_n1" pos="-82.23,83.53" probability="100.00">
        <interval begin="0.00" end="1000000.00">
            <routeProbReroute id="042" probability="50.00" />
            <routeProbReroute id="043" probability="50.00" />
        </interval>
    </rerouter>
    <rerouter id="rerouter_13" edges="n1_to_n2" pos="32.95,92.27" probability="100.00">
        <interval begin="0.00" end="1000000.00">
            <routeProbReroute id="044" probability="50.00" />
            <routeProbReroute id="045" probability="50.00" />
        </interval>
    </rerouter>
    <rerouter id="rerouter_14" edges="e_to_s2" pos="96.61,-77.10" probability="100.00">
        <interval begin="0.00" end="1000000.00">
            <routeProbReroute id="046" probability="50.00" />
            <routeProbReroute id="047" probability="50.00" />
        </interval>
    </rerouter>
    <rerouter id="rerouter_15" edges="s1_to_w" pos="-137.57,-20.26" probability="100.00">
        <interval begin="0.00" end="1000000.00">
            <routeProbReroute id="048" probability="50.00" />
            <routeProbReroute id="049" probability="50.00" />
        </interval>
    </rerouter>
    <rerouter id="rerouter_16" edges="w_to_s1" pos="-89.69,-100.02" probability="100.00">
        <interval begin="0.00" end="1000000.00">
            <routeProbReroute id="050" probability="50.00" />
            <routeProbReroute id="051" probability="50.00" />
        </interval>
    </rerouter>
    <rerouter id="rerouter_17" edges="s1_to_s2" pos="72.21,-106.85" probability="100.00">
        <interval begin="0.00" end="1000000.00">
            <routeProbReroute id="052" probability="50.00" />
            <routeProbReroute id="053" probability="50.00" />
        </interval>
    </rerouter>
    <rerouter id="rerouter_18" edges="n2_to_ne" pos="114.00,72.18" probability="100.00">
        <interval begin="0.00" end="1000000.00">
            <routeProbReroute id="054" probability="50.00" />
            <routeProbReroute id="055" probability="50.00" />
        </interval>
    </rerouter>
    <rerouter id="rerouter_19" edges="e_to_ne" pos="151.73,58.78" probability="100.00">
        <interval begin="0.00" end="1000000.00">
            <routeProbReroute id="056" probability="50.00" />
            <routeProbReroute id="057" probability="50.00" />
        </interval>
    </rerouter>
    <rerouter id="rerouter_2" edges="s1_to_c1" pos="-45.42,-22.24" probability="100.00">
        <interval begin="0.00" end="1000000.00">
            <routeProbReroute id="02" probability="10.00" />
            <routeProbReroute id="010" probability="10.00" />
            <routeProbReroute id="011" probability="10.00" />
            <routeProbReroute id="012" probability="10.00" />
            <routeProbReroute id="013" probability="10.00" />
            <routeProbReroute id="155" probability="10.00" />
            <routeProbReroute id="156" probability="10.00" />
            <routeProbReroute id="157" probability="10.00" />
            <routeProbReroute id="158" probability="10.00" />
            <routeProbReroute id="159" probability="10.00" />
        </interval>
    </rerouter>
    <rerouter id="rerouter_20" edges="n2_to_n1" pos="-39.57,109.66" probability="100.00">
        <interval begin="0.00" end="1000000.00">
            <routeProbReroute id="058" probability="50.00" />
            <routeProbReroute id="059" probability="50.00" />
        </interval>
    </rerouter>
    <rerouter id="rerouter_21" edges="n1_to_w" pos="-154.74,26.13" probability="100.00">
        <interval begin="0.00" end="1000000.00">
            <routeProbReroute id="060" probability="50.00" />
            <routeProbReroute id="061" probability="50.00" />
        </interval>
    </rerouter>
    <rerouter id="rerouter_22" edges="s2_to_e" pos="156.03,-23.18" probability="100.00">
        <interval begin="0.00" end="1000000.00">
            <routeProbReroute id="062" probability="50.00" />
            <routeProbReroute id="063" probability="50.00" />
        </interval>
    </rerouter>
    <rerouter id="rerouter_23" edges="s2_to_s1" pos="-35.90,-90.43" probability="100.00">
        <interval begin="0.00" end="1000000.00">
            <routeProbReroute id="064" probability="50.00" />
            <routeProbReroute id="065" probability="50.00" />
        </interval>
    </rerouter>
    <rerouter id="rerouter_3" edges="n2_to_c2" pos="40.80,22.75" probability="100.00">
        <interval begin="0.00" end="1000000.00">
            <routeProbReroute id="03" probability="10.00" />
            <routeProbReroute id="022" probability="10.00" />
            <routeProbReroute id="023" probability="10.00" />
            <routeProbReroute id="024" probability="10.00" />
            <routeProbReroute id="025" probability="10.00" />
            <routeProbReroute id="130" probability="10.00" />
            <routeProbReroute id="131" probability="10.00" />
            <routeProbReroute id="132" probability="10.00" />
            <routeProbReroute id="133" probability="10.00" />
            <routeProbReroute id="134" probability="10.00" />
        </interval>
    </rerouter>
    <rerouter id="rerouter_4" edges="e_to_c2" pos="76.62,8.65" probability="100.00">
        <interval begin="0.00" end="1000000.00">
            <routeProbReroute id="04" probability="10.00" />
            <routeProbReroute id="018" probability="10.00" />
            <routeProbReroute id="019" probability="10.00" />
            <routeProbReroute id="020" probability="10.00" />
            <routeProbReroute id="021" probability="10.00" />
            <routeProbReroute id="125" probability="10.00" />
            <routeProbReroute id="126" probability="10.00" />
            <routeProbReroute id="127" probability="10.00" />
            <routeProbReroute id="128" probability="10.00" />
            <routeProbReroute id="129" probability="10.00" />
        </interval>
    </rerouter>
    <rerouter id="rerouter_5" edges="s2_to_c2" pos="65.09,-14.28" probability="100.00">
        <interval begin="0.00" end="1000000.00">
            <routeProbReroute id="05" probability="10.00" />
            <routeProbReroute id="014" probability="10.00" />
            <routeProbReroute id="015" probability="10.00" />
            <routeProbReroute id="016" probability="10.00" />
            <routeProbReroute id="017" probability="10.00" />
            <routeProbReroute id="135" probability="10.00" />
            <routeProbReroute id="136" probability="10.00" />
            <routeProbReroute id="137" probability="10.00" />
            <routeProbReroute id="138" probability="10.00" />
            <routeProbReroute id="139" probability="10.00" />
        </interval>
    </rerouter>
    <rerouter id="rerouter_6" edges="c1_to_w" pos="-134.24,15.09" probability="100.00">
        <interval begin="0.00" end="1000000.00">
            <routeProbReroute id="030" probability="50.00" />
            <routeProbReroute id="031" probability="50.00" />
        </interval>
    </rerouter>
    <rerouter id="rerouter_7" edges="c1_to_n1" pos="-44.84,79.84" probability="100.00">
        <interval begin="0.00" end="1000000.00">
            <routeProbReroute id="036" probability="50.00" />
            <routeProbReroute id="037" probability="50.00" />
        </interval>
    </rerouter>
    <rerouter id="rerouter_8" edges="c1_to_s1" pos="-77.61,-70.07" probability="100.00">
        <interval begin="0.00" end="1000000.00">
            <routeProbReroute id="032" probability="50.00" />
            <routeProbReroute id="033" probability="50.00" />
        </interval>
    </rerouter>
    <rerouter id="rerouter_9" edges="c2_to_e" pos="139.22,-8.83" probability="100.00">
        <interval begin="0.00" end="1000000.00">
            <routeProbReroute id="034" probability="50.00" />
            <routeProbReroute id="035" probability="50.00" />
        </interval>
    </rerouter>
    <rerouter id="rerouter_100" edges="c2_to_ne" pos="0,0" probability="100.00">
        <interval begin="0.00" end="1000000.00">
            <routeProbReroute id="160" probability="50.00" />
            <routeProbReroute id="161" probability="50.00" />
        </interval>
    </rerouter>
    <rerouter id="rerouter_101" edges="s1_to_c2" pos="0,0" probability="100.00">
        <interval begin="0.00" end="1000000.00">
            <routeProbReroute id="113" probability="8.33" />
            <routeProbReroute id="114" probability="8.33" />
            <routeProbReroute id="115" probability="8.33" />
            <routeProbReroute id="116" probability="8.33" />
            <routeProbReroute id="117" probability="8.33" />
            <routeProbReroute id="118" probability="8.33" />
            <routeProbReroute id="119" probability="8.33" />
            <routeProbReroute id="120" probability="8.33" />
            <routeProbReroute id="121" probability="8.33" />
            <routeProbReroute id="122" probability="8.33" />
            <routeProbReroute id="123" probability="8.33" />
            <routeProbReroute id="124" probability="8.33" />
        </interval>
    </rerouter>
    <rerouter id="rerouter_102" edges="ne_to_c2" pos="0,0" probability="100.00">
        <interval begin="0.00" end="1000000.00">
            <routeProbReroute id="100" probability="7.69" />
            <routeProbReroute id="101" probability="7.69" />
            <routeProbReroute id="102" probability="7.69" />
            <routeProbReroute id="103" probability="7.69" />
            <routeProbReroute id="104" probability="7.69" />
            <routeProbReroute id="105" probability="7.69" />
            <routeProbReroute id="106" probability="7.69" />
            <routeProbReroute id="107" probability="7.69" />
            <routeProbReroute id="108" probability="7.69" />
            <routeProbReroute id="109" probability="7.69" />
            <routeProbReroute id="110" probability="7.69" />
            <routeProbReroute id="111" probability="7.69" />
            <routeProbReroute id="112" probability="7.69" />
        </interval>
    </rerouter>
    <rerouter id="rerouter_103" edges="c2_to_s1" pos="0,0" probability="100.00">
        <interval begin="0.00" end="1000000.00">
            <routeProbReroute id="162" probability="33.33" />
            <routeProbReroute id="163" probability="33.33" />
            <routeProbReroute id="164" probability="33.33" />
        </interval>
    </rerouter>
    <route id="200" edges="ne_to_e e_to_c2" />
    <route id="201" edges="ne_to_e e_to_s2" />
    <route id="202" edges="ne_to_n2 n2_to_c2" />
    <route id="203" edges="ne_to_n2 n2_to_n1" />
    <rerouter id="rerouter_104" edges="ne_to_e" pos="0,0" probability="100.00">
        <interval begin="0.00" end="1000000.00">
            <routeProbReroute id="200" probability="50.00" />
            <routeProbReroute id="201" probability="50.00" />
        </interval>
    </rerouter>
    <rerouter id="rerouter_105" edges="ne_to_n2" pos="0,0" probability="100.00">
        <interval begin="0.00" end="1000000.00">
            <routeProbReroute id="202" probability="50.00" />
            <routeProbReroute id="203" probability="50.00" />
        </interval>
    </rerouter>
</additional>
