<?xml version="1.0" ?>
<additional xmlns:xsi="http://www.w3.org/2001/XMLSchema-instance" xsi:noNamespaceSchemaLocation="http://sumo.dlr.de/xsd/additional_file.xsd">
    <!-- Routes -->
    <route id="route_c_to_e_e_to_n" edges="c_to_e e_to_n"/>
    <route id="route_c_to_e_e_to_s2" edges="c_to_e e_to_s2"/>
    <route id="route_c_to_n_n_to_e" edges="c_to_n n_to_e"/>
    <route id="route_c_to_n_n_to_w" edges="c_to_n n_to_w"/>
    <route id="route_c_to_s1_s1_to_s2" edges="c_to_s1 s1_to_s2"/>
    <route id="route_c_to_s1_s1_to_w" edges="c_to_s1 s1_to_w"/>
    <route id="route_c_to_s2_s2_to_e" edges="c_to_s2 s2_to_e"/>
    <route id="route_c_to_s2_s2_to_s1" edges="c_to_s2 s2_to_s1"/>
    <route id="route_c_to_w_w_to_n" edges="c_to_w w_to_n"/>
    <route id="route_c_to_w_w_to_s1" edges="c_to_w w_to_s1"/>
    <route id="route_e_to_c_c_to_n" edges="e_to_c c_to_n"/>
    <route id="route_e_to_c_c_to_s1" edges="e_to_c c_to_s1"/>
    <route id="route_e_to_c_c_to_s2" edges="e_to_c c_to_s2"/>
    <route id="route_e_to_c_c_to_w" edges="e_to_c c_to_w"/>
    <route id="route_e_to_n_n_to_c" edges="e_to_n n_to_c"/>
    <route id="route_e_to_n_n_to_w" edges="e_to_n n_to_w"/>
    <route id="route_e_to_s2_s2_to_c" edges="e_to_s2 s2_to_c"/>
    <route id="route_e_to_s2_s2_to_s1" edges="e_to_s2 s2_to_s1"/>
    <route id="route_n_to_c_c_to_e" edges="n_to_c c_to_e"/>
    <route id="route_n_to_c_c_to_s1" edges="n_to_c c_to_s1"/>
    <route id="route_n_to_c_c_to_s2" edges="n_to_c c_to_s2"/>
    <route id="route_n_to_c_c_to_w" edges="n_to_c c_to_w"/>
    <route id="route_n_to_e_e_to_c" edges="n_to_e e_to_c"/>
    <route id="route_n_to_e_e_to_s2" edges="n_to_e e_to_s2"/>
    <route id="route_n_to_w_w_to_c" edges="n_to_w w_to_c"/>
    <route id="route_n_to_w_w_to_s1" edges="n_to_w w_to_s1"/>
    <route id="route_s1_to_c_c_to_e" edges="s1_to_c c_to_e"/>
    <route id="route_s1_to_c_c_to_n" edges="s1_to_c c_to_n"/>
    <route id="route_s1_to_c_c_to_s2" edges="s1_to_c c_to_s2"/>
    <route id="route_s1_to_c_c_to_w" edges="s1_to_c c_to_w"/>
    <route id="route_s1_to_s2_s2_to_c" edges="s1_to_s2 s2_to_c"/>
    <route id="route_s1_to_s2_s2_to_e" edges="s1_to_s2 s2_to_e"/>
    <route id="route_s1_to_w_w_to_c" edges="s1_to_w w_to_c"/>
    <route id="route_s1_to_w_w_to_n" edges="s1_to_w w_to_n"/>
    <route id="route_s2_to_c_c_to_e" edges="s2_to_c c_to_e"/>
    <route id="route_s2_to_c_c_to_n" edges="s2_to_c c_to_n"/>
    <route id="route_s2_to_c_c_to_s1" edges="s2_to_c c_to_s1"/>
    <route id="route_s2_to_c_c_to_w" edges="s2_to_c c_to_w"/>
    <route id="route_s2_to_e_e_to_c" edges="s2_to_e e_to_c"/>
    <route id="route_s2_to_e_e_to_n" edges="s2_to_e e_to_n"/>
    <route id="route_s2_to_s1_s1_to_c" edges="s2_to_s1 s1_to_c"/>
    <route id="route_s2_to_s1_s1_to_w" edges="s2_to_s1 s1_to_w"/>
    <route id="route_w_to_c_c_to_e" edges="w_to_c c_to_e"/>
    <route id="route_w_to_c_c_to_n" edges="w_to_c c_to_n"/>
    <route id="route_w_to_c_c_to_s1" edges="w_to_c c_to_s1"/>
    <route id="route_w_to_c_c_to_s2" edges="w_to_c c_to_s2"/>
    <route id="route_w_to_n_n_to_c" edges="w_to_n n_to_c"/>
    <route id="route_w_to_n_n_to_e" edges="w_to_n n_to_e"/>
    <route id="route_w_to_s1_s1_to_c" edges="w_to_s1 s1_to_c"/>
    <route id="route_w_to_s1_s1_to_s2" edges="w_to_s1 s1_to_s2"/>
    <!-- Rerouters -->
    <rerouter id="rerouter_c_to_e" edges="c_to_e" probability="100.00">
        <interval begin="0.00" end="1000000.00">
            <routeProbReroute id="route_c_to_e_e_to_n" probability="50.00"/>
            <routeProbReroute id="route_c_to_e_e_to_s2" probability="50.00"/>
        </interval>
    </rerouter>
    <rerouter id="rerouter_c_to_n" edges="c_to_n" probability="100.00">
        <interval begin="0.00" end="1000000.00">
            <routeProbReroute id="route_c_to_n_n_to_e" probability="50.00"/>
            <routeProbReroute id="route_c_to_n_n_to_w" probability="50.00"/>
        </interval>
    </rerouter>
    <rerouter id="rerouter_c_to_s1" edges="c_to_s1" probability="100.00">
        <interval begin="0.00" end="1000000.00">
            <routeProbReroute id="route_c_to_s1_s1_to_s2" probability="50.00"/>
            <routeProbReroute id="route_c_to_s1_s1_to_w" probability="50.00"/>
        </interval>
    </rerouter>
    <rerouter id="rerouter_c_to_s2" edges="c_to_s2" probability="100.00">
        <interval begin="0.00" end="1000000.00">
            <routeProbReroute id="route_c_to_s2_s2_to_e" probability="50.00"/>
            <routeProbReroute id="route_c_to_s2_s2_to_s1" probability="50.00"/>
        </interval>
    </rerouter>
    <rerouter id="rerouter_c_to_w" edges="c_to_w" probability="100.00">
        <interval begin="0.00" end="1000000.00">
            <routeProbReroute id="route_c_to_w_w_to_n" probability="50.00"/>
            <routeProbReroute id="route_c_to_w_w_to_s1" probability="50.00"/>
        </interval>
    </rerouter>
    <rerouter id="rerouter_e_to_c" edges="e_to_c" probability="100.00">
        <interval begin="0.00" end="1000000.00">
            <routeProbReroute id="route_e_to_c_c_to_n" probability="25.00"/>
            <routeProbReroute id="route_e_to_c_c_to_s1" probability="25.00"/>
            <routeProbReroute id="route_e_to_c_c_to_s2" probability="25.00"/>
            <routeProbReroute id="route_e_to_c_c_to_w" probability="25.00"/>
        </interval>
    </rerouter>
    <rerouter id="rerouter_e_to_n" edges="e_to_n" probability="100.00">
        <interval begin="0.00" end="1000000.00">
            <routeProbReroute id="route_e_to_n_n_to_c" probability="50.00"/>
            <routeProbReroute id="route_e_to_n_n_to_w" probability="50.00"/>
        </interval>
    </rerouter>
    <rerouter id="rerouter_e_to_s2" edges="e_to_s2" probability="100.00">
        <interval begin="0.00" end="1000000.00">
            <routeProbReroute id="route_e_to_s2_s2_to_c" probability="50.00"/>
            <routeProbReroute id="route_e_to_s2_s2_to_s1" probability="50.00"/>
        </interval>
    </rerouter>
    <rerouter id="rerouter_n_to_c" edges="n_to_c" probability="100.00">
        <interval begin="0.00" end="1000000.00">
            <routeProbReroute id="route_n_to_c_c_to_e" probability="25.00"/>
            <routeProbReroute id="route_n_to_c_c_to_s1" probability="25.00"/>
            <routeProbReroute id="route_n_to_c_c_to_s2" probability="25.00"/>
            <routeProbReroute id="route_n_to_c_c_to_w" probability="25.00"/>
        </interval>
    </rerouter>
    <rerouter id="rerouter_n_to_e" edges="n_to_e" probability="100.00">
        <interval begin="0.00" end="1000000.00">
            <routeProbReroute id="route_n_to_e_e_to_c" probability="50.00"/>
            <routeProbReroute id="route_n_to_e_e_to_s2" probability="50.00"/>
        </interval>
    </rerouter>
    <rerouter id="rerouter_n_to_w" edges="n_to_w" probability="100.00">
        <interval begin="0.00" end="1000000.00">
            <routeProbReroute id="route_n_to_w_w_to_c" probability="50.00"/>
            <routeProbReroute id="route_n_to_w_w_to_s1" probability="50.00"/>
        </interval>
    </rerouter>
    <rerouter id="rerouter_s1_to_c" edges="s1_to_c" probability="100.00">
        <interval begin="0.00" end="1000000.00">
            <routeProbReroute id="route_s1_to_c_c_to_e" probability="25.00"/>
            <routeProbReroute id="route_s1_to_c_c_to_n" probability="25.00"/>
            <routeProbReroute id="route_s1_to_c_c_to_s2" probability="25.00"/>
            <routeProbReroute id="route_s1_to_c_c_to_w" probability="25.00"/>
        </interval>
    </rerouter>
    <rerouter id="rerouter_s1_to_s2" edges="s1_to_s2" probability="100.00">
        <interval begin="0.00" end="1000000.00">
            <routeProbReroute id="route_s1_to_s2_s2_to_c" probability="50.00"/>
            <routeProbReroute id="route_s1_to_s2_s2_to_e" probability="50.00"/>
        </interval>
    </rerouter>
    <rerouter id="rerouter_s1_to_w" edges="s1_to_w" probability="100.00">
        <interval begin="0.00" end="1000000.00">
            <routeProbReroute id="route_s1_to_w_w_to_c" probability="50.00"/>
            <routeProbReroute id="route_s1_to_w_w_to_n" probability="50.00"/>
        </interval>
    </rerouter>
    <rerouter id="rerouter_s2_to_c" edges="s2_to_c" probability="100.00">
        <interval begin="0.00" end="1000000.00">
            <routeProbReroute id="route_s2_to_c_c_to_e" probability="25.00"/>
            <routeProbReroute id="route_s2_to_c_c_to_n" probability="25.00"/>
            <routeProbReroute id="route_s2_to_c_c_to_s1" probability="25.00"/>
            <routeProbReroute id="route_s2_to_c_c_to_w" probability="25.00"/>
        </interval>
    </rerouter>
    <rerouter id="rerouter_s2_to_e" edges="s2_to_e" probability="100.00">
        <interval begin="0.00" end="1000000.00">
            <routeProbReroute id="route_s2_to_e_e_to_c" probability="50.00"/>
            <routeProbReroute id="route_s2_to_e_e_to_n" probability="50.00"/>
        </interval>
    </rerouter>
    <rerouter id="rerouter_s2_to_s1" edges="s2_to_s1" probability="100.00">
        <interval begin="0.00" end="1000000.00">
            <routeProbReroute id="route_s2_to_s1_s1_to_c" probability="50.00"/>
            <routeProbReroute id="route_s2_to_s1_s1_to_w" probability="50.00"/>
        </interval>
    </rerouter>
    <rerouter id="rerouter_w_to_c" edges="w_to_c" probability="100.00">
        <interval begin="0.00" end="1000000.00">
            <routeProbReroute id="route_w_to_c_c_to_e" probability="25.00"/>
            <routeProbReroute id="route_w_to_c_c_to_n" probability="25.00"/>
            <routeProbReroute id="route_w_to_c_c_to_s1" probability="25.00"/>
            <routeProbReroute id="route_w_to_c_c_to_s2" probability="25.00"/>
        </interval>
    </rerouter>
    <rerouter id="rerouter_w_to_n" edges="w_to_n" probability="100.00">
        <interval begin="0.00" end="1000000.00">
            <routeProbReroute id="route_w_to_n_n_to_c" probability="50.00"/>
            <routeProbReroute id="route_w_to_n_n_to_e" probability="50.00"/>
        </interval>
    </rerouter>
    <rerouter id="rerouter_w_to_s1" edges="w_to_s1" probability="100.00">
        <interval begin="0.00" end="1000000.00">
            <routeProbReroute id="route_w_to_s1_s1_to_c" probability="50.00"/>
            <routeProbReroute id="route_w_to_s1_s1_to_s2" probability="50.00"/>
        </interval>
    </rerouter>
</additional>