<!-- ============================================================================
 * Research Project: Data communication in the environment of
intelligent cars
 * Author: Kirill Komarov
 * Date: 2026
 * 
 * Description:
 * This file contains source code developed (or modified) as part of the 
 * research for the paper: "Data communication in the environment of
intelligent cars".
 * 
 * DISCLAIMER & ACKNOWLEDGEMENT:
 * Please note that this file contains or may contain code fragments, 
 * algorithms, or architectural solutions that were previously implemented 
 * in the "VaN3Twin" project https://github.com/DriveX-devs/VaN3Twin.git.
 * 
 * The borrowed code has been adapted and is used strictly for academic 
 * and research purposes. All rights to the original code segments belong 
 * to their respective original authors.
 * ============================================================================ -->
<routes>
	
	<route id="pedroute_0" edges="edge_1 edge_2 edge_3 edge_4 edge_5 edge_6 edge_7 edge_8 edge_9 edge_10 edge_11 edge_12 edge_13 edge_14 edge_15 edge_16 edge_17 edge_18 edge_19 edge_20 edge_21"/>
	
        <person id="ped1000" depart="0" desiredMaxSpeed="1">
        	<walk route="pedroute_0"/>
        </person>

</routes>
